<?xml version="1.0" encoding="UTF-8"?>

<!-- generated on 2023-09-26 16:37:11.792175 by randomTrips.py v1_18_0+1773-9554271d25e
<configuration>
    <net-file value="/home/vatsaldadia/Desktop/drone/map.net.xml"/>
    <route-file value="/home/vatsaldadia/Desktop/drone/trips.rou.xml"/>
    <vehicle-class value="passenger"/>
    <validate value="True"/>
    <end value="300.0"/>
    <period value="3.0"/>
</configuration>
-->

<!-- generated on 2023-09-26 16:37:11 by Eclipse SUMO duarouter Version v1_18_0+1773-9554271d25e
<configuration xmlns:xsi="http://www.w3.org/2001/XMLSchema-instance" xsi:noNamespaceSchemaLocation="http://sumo.dlr.de/xsd/duarouterConfiguration.xsd">

    <input>
        <net-file value="/home/vatsaldadia/Desktop/drone/map.net.xml"/>
        <route-files value="trips.trips.xml"/>
    </input>

    <output>
        <output-file value="/home/vatsaldadia/Desktop/drone/trips.rou.xml"/>
        <alternatives-output value="NUL"/>
    </output>

    <time>
        <begin value="0"/>
        <end value="300.0"/>
    </time>

    <report>
        <no-warnings value="true"/>
        <ignore-errors value="true"/>
        <no-step-log value="true"/>
    </report>

</configuration>
-->

<routes xmlns:xsi="http://www.w3.org/2001/XMLSchema-instance" xsi:noNamespaceSchemaLocation="http://sumo.dlr.de/xsd/routes_file.xsd">
    <vType id="passenger" vClass="passenger"/>
    <vehicle id="0" type="passenger" depart="0.00">
        <route edges="158199178#0 158199178#1 158199178#2 693274884 154887815#4 158199189 154887811#0 154887811#1 154887811#2 154887811#3 1137244053 153690569 153681226#0 153681226#1 153681226#2 153681226#3 1134514478 260285711#0 157970117#0 -158004709#9"/>
    </vehicle>
    <vehicle id="1" type="passenger" depart="3.00">
        <route edges="-191559105#2 -191559105#1 -191559105#0 158184970#1 158184970#2 158184970#3 158184970#4 158184970#5 158184970#6 1126855605 1126855604 1126855603 158184969#0 191363023#0 191363023#1 -191363023#1 -191363023#0"/>
    </vehicle>
    <vehicle id="2" type="passenger" depart="6.00">
        <route edges="158308044#1 157973069#3 -689620994 157973067#2 1126855579 1126855578 1126855577 1126855576 1126855575 157970121#0 157970121#1 157970121#2 157970121#3 157970121#4 157970121#5 1133443385 1133443384 153681221#0 154887830#0 154887830#1 154887830#2 154887830#3 1126855611 158199197#0 158199197#1 158199197#2 693285722 158199194#4"/>
    </vehicle>
    <vehicle id="3" type="passenger" depart="9.00">
        <route edges="191363023#8 191363023#9 -191363023#9 -191363023#8 -191363023#7 -191363023#6 -191363023#5 -191363023#4 -191363023#3 -191363023#2 -191363023#1 -191363023#0 158184969#1 689057506 158184968#4 1126855608 1126855607 1126855606 158184972#0 158184972#1 158184972#2 158184972#3 158184972#4 158184971 153681220#2 153690576#0 153690576#1 153690576#2 153681221#0 153681221#1 1137244053 1134514476 260285714 154887839#0 -158308032#9 -158308032#8 158308035#0 158308035#1 -158308035#1"/>
    </vehicle>
    <vehicle id="4" type="passenger" depart="12.00">
        <route edges="153813982#1 153813982#2 153813982#3 1126855619 154887808#0 154887808#1 154887808#2 154887815#0 154887815#1 154887815#2 154887815#3 154887815#4 158199189 154887811#0 154887811#1 154887811#2 154887811#3 1137244053 153690569 153681226#0 153681226#1 153681226#2 153681226#3 1134514478 260285711#0 157970117#0 -158004709#9 -158004709#8 -158004709#7 -158004709#6 -158004709#5 -158004709#4 -158004709#3 -158004709#2 158004732 -158004732"/>
    </vehicle>
    <vehicle id="5" type="passenger" depart="15.00">
        <route edges="-164600317 -158028074#6 -158028074#5 -158028074#4 -158028074#3 -158028074#2 -158028074#1 -158028074#0 158028048 157970121#5 1133443385 1133443384 153681221#0 153681221#1 1137244053 1134514476 260285714 154887839#0 154887839#1 154887839#2 -689583691 157970121#3"/>
    </vehicle>
    <vehicle id="6" type="passenger" depart="18.00">
        <route edges="-158004709#9 158004709#9 157970117#1 689194908 157970119#6 157970119#7 260285711#2 153690575#0 153690575#1 153690575#2 153690575#3 260285714 1136736662 1133443385 153690582 260285712#0 260285712#1 260285712#2 1133443382 153681220#0 153681220#1 153681220#2 153690576#0 -158640623"/>
    </vehicle>
    <vehicle id="7" type="passenger" depart="21.00">
        <route edges="158199182#2 -191559107#2 -191559107#1 191559104#1 191559104#2 158184970#4 -693282577 158184972#1 158184972#2 158184972#3 158184972#4 158184971 153681220#2 153690576#0 153690576#1 153690576#2 153681221#0 153681221#1 1137244053 153690569 153681226#0 153681226#1 153681226#2 153681226#3 1134514478 260285711#0 157970117#0 -158004709#9 158004725"/>
    </vehicle>
    <vehicle id="8" type="passenger" depart="24.00">
        <route edges="-167026487#2 167026487#2 -158004734#0 158004709#5 158004709#6 158004709#7 158004709#8 158004709#9 157970117#1 689194908 157970119#6 157970119#7 260285711#2 153690575#0 153690575#1 153690575#2 153690575#3 260285714 154887839#0 154887839#1 154887839#2 154887839#3 154887839#4 154887823#0 154887823#1 154887823#2 1126855574 1126855580 1126855579 1126855578 1126855577 1126855576 1126855575 157970121#0 158028079#0 158028079#1 158028079#2 158028079#3 158028079#4 158028079#5"/>
    </vehicle>
    <vehicle id="9" type="passenger" depart="27.00">
        <route edges="158320869#6 -158320869#6 -158320869#5 -158320869#4 -158320869#3 1116192419 1116192420 158496689 -158496689 -1116192420 -1116192419"/>
    </vehicle>
    <vehicle id="10" type="passenger" depart="30.00">
        <route edges="158320869#3 158320869#4 158496668 -158320867#2 -158320867#1 -158320867#0 154887815#1 154887815#2 158199997#0 158199997#1 158199997#2 158199997#3 -689049482 158199995#3 158199995#4"/>
    </vehicle>
    <vehicle id="11" type="passenger" depart="33.00">
        <route edges="1116192420 158496689 -158496689 -1116192420 -1116192419 -158320869#2 -158320869#1"/>
    </vehicle>
    <vehicle id="13" type="passenger" depart="39.00">
        <route edges="-158308034#0 158308032#2 158308032#3 158308032#4 158308032#5 158308032#6 158308043#0 -158308043#0"/>
    </vehicle>
    <vehicle id="14" type="passenger" depart="42.00">
        <route edges="158640620#3 158640620#4 158640620#5 158640620#6 -158640628 158199197#6 158199197#7 1126855606 158184974 1126855605 1126855604 1126855603 158184969#0 158184969#1 158184969#2 158184969#3 158184969#4"/>
    </vehicle>
    <vehicle id="15" type="passenger" depart="45.00">
        <route edges="158320869#4 158320869#5 158320869#6 158320869#7 158320869#8 158320869#9 154887811#1 154887811#2 154887811#3 1137244053 153690569 153681226#0 153681226#1 153681226#2 153681226#3 1134514478 260285711#0 260285711#1 260285711#2 153690575#0 -158308034#1 158308034#1"/>
    </vehicle>
    <vehicle id="16" type="passenger" depart="48.00">
        <route edges="158004709#7 158004709#8 158004709#9 157970117#1 157970117#2 157970117#3 157970117#4 689605632"/>
    </vehicle>
    <vehicle id="17" type="passenger" depart="51.00">
        <route edges="1133443384 153681221#0 153681221#1 1137244053 153690569 153681226#0 153681226#1 153681226#2 153681226#3 1134514478 260285711#0 157970117#0 -158004709#9 -158004709#8 -158004709#7 -158004709#6 -158004709#5 158004734#0"/>
    </vehicle>
    <vehicle id="18" type="passenger" depart="54.00">
        <route edges="158496669 -158320867#1 -158320867#0 154887815#1 154887815#2 154887815#3 154887815#4 158199189 1126855612 1126855611 158199197#0 158199197#1 158199197#2 158199197#3 158199197#4 158199197#5 158199197#6 158199197#7 1126855606 158184972#0 158184972#1"/>
    </vehicle>
    <vehicle id="19" type="passenger" depart="57.00">
        <route edges="158640630 -158640630 158640620#5 158640620#6 158640620#7 158640620#8 158640620#9 158184972#4 158184971 153681220#2 1133443383 260285712#0 158184977#0 -164600317 -158028074#6 -158028074#5 -158028074#4 158028074#4"/>
    </vehicle>
    <vehicle id="20" type="passenger" depart="60.00">
        <route edges="158308032#0 158308032#1 158308032#2 158308032#3 158308032#4 158308032#5 158308032#6 158308032#7 158308032#8 158308032#9 154887839#1 154887839#2 154887839#3 154887839#4 154887823#0 154887823#1 154887823#2 1126855574 1126855580 1126855579 1126855578 1126855577 1126855576 1126855575 157970121#0 158028079#0 158028079#1 158028079#2 158028079#3 158028079#4 158028079#5 158028069#1 -158028069#1"/>
    </vehicle>
    <vehicle id="22" type="passenger" depart="66.00">
        <route edges="-158308032#1 158308032#1 158308034#0 158308034#1 153690575#1 153690575#2 153690575#3 260285714 1136736662 1133443385 153690582 260285712#0 260285712#1 260285712#2 1133443382 153681220#0 158184970#0 158184970#1 158184970#2 158184970#3 158184970#4 158184970#5 158184970#6 1126855605 1126855604 1126855603 158184969#0 191363023#0 191363023#1 191363023#2 191363023#3 191363023#4 191363023#5 191363023#6 191363023#7 191363023#8 191363023#9 -191363023#9 -191363023#8 -191363023#7"/>
    </vehicle>
    <vehicle id="23" type="passenger" depart="69.00">
        <route edges="-158308039 158308032#1 158308034#0 158308034#1 153690575#1 153690575#2 153690575#3 260285714 1136736662 1133443385 153690582 260285712#0 260285712#1 260285712#2 1133443382 153681220#0 158184970#0 158184970#1 158184970#2 158184970#3 -191559104#2 -191559104#1 -191559107#0"/>
    </vehicle>
    <vehicle id="24" type="passenger" depart="72.00">
        <route edges="158184978#3 158184978#4 260285712#2 1133443382 153681220#0 153681220#1 153681220#2 153690576#0 153690576#1 153690576#2 153681221#0 154887830#0 154887830#1 154887830#2 154887830#3 1126855611 1126855610 1126855614 1126855613"/>
    </vehicle>
    <vehicle id="25" type="passenger" depart="75.00">
        <route edges="1126855618 1126855617 1126855616 1126855615 1126855621 1126855620 153747151 1126855619 154887808#0 154887808#1 154887808#2 154887815#0 154887815#1 154887815#2 154887815#3 154887815#4 158199189 154887811#0 154887811#1 154887811#2 154887811#3 1137244053 1134514476 260285714 1136736662 1133443385 1133443384 153681221#0 154887830#0 158640620#0 158640620#1 158640638#0 -158640638#0"/>
    </vehicle>
    <vehicle id="26" type="passenger" depart="78.00">
        <route edges="-191559103#2 -191559103#1 -191559103#0 191559105#1 191559107#0"/>
    </vehicle>
    <vehicle id="27" type="passenger" depart="81.00">
        <route edges="158199182#1 -191559103#2 -191559103#1 -191559103#0 -191559105#0 158184970#1 158184970#2"/>
    </vehicle>
    <vehicle id="28" type="passenger" depart="84.00">
        <route edges="-158320869#7 158320869#7 158320869#8 158320869#9 154887811#1 154887811#2 154887811#3 1137244053 153690569 153681226#0 153681226#1 153681226#2 153681226#3 1134514478 260285711#0 260285711#1 260285711#2 153690575#0 -158308034#1 158308034#1"/>
    </vehicle>
    <vehicle id="29" type="passenger" depart="87.00">
        <route edges="-158320869#10 154887811#1 154887811#2 154887811#3 1137244053 1134514476 260285714 1136736662 1133443385 1133443384"/>
    </vehicle>
    <vehicle id="30" type="passenger" depart="90.00">
        <route edges="693317927#0 -158640630 158640620#5 158640620#6 158640620#7 158640620#8 158640620#9 158184972#4 158184971 153681220#2 1133443383 260285712#0 158184977#0 158184977#1 158184977#2"/>
    </vehicle>
    <vehicle id="31" type="passenger" depart="93.00">
        <route edges="158028060 -158028079#0 157970121#1 157970121#2 157970121#3 157970121#4 157970121#5 1133443385 1133443384 153681221#0 154887830#0 154887830#1 154887830#2 154887830#3 1126855611 158199197#0 158199197#1 158199197#2 158199197#3 158199197#4 158199197#5"/>
    </vehicle>
    <vehicle id="32" type="passenger" depart="96.00">
        <route edges="158640620#0 158640620#1 158640638#0 158640638#1 153690576#2 153681221#0 153681221#1 1137244053 153690569 153681226#0 158320871#0 158320871#1 158320871#2 158320871#3 158320861#0"/>
    </vehicle>
    <vehicle id="33" type="passenger" depart="99.00">
        <route edges="-191363023#1 -191363023#0 158184969#1 689057506 158184968#4 1126855608 1126855607 1126855606 158184972#0 158184972#1 158184972#2 158184972#3 158184972#4 158184971 153681220#2 1133443383 260285712#0 158184977#0 -164600317 -158028074#6 -158028074#5 -158028074#4 158028052 -158028079#4 -158028046"/>
    </vehicle>
    <vehicle id="34" type="passenger" depart="102.00">
        <route edges="-693303883 693303883 158320873#2 158320873#3 153681226#2 153681226#3 1134514478 260285711#0 260285711#1 260285711#2 153690575#0 153690575#1 153690575#2 153690575#3 260285714 1136736662 1133443385 153690582 260285712#0 260285712#1 260285712#2 1133443382 153681220#0 158184970#0 158184970#1 158184970#2 158184970#3 -191559104#2 -191559104#1 -191559104#0"/>
    </vehicle>
    <vehicle id="35" type="passenger" depart="105.00">
        <route edges="-158640637 158199197#1 158199197#2 693285722 158199194#4 1126855614 1126855613 158199189 154887811#0 154887811#1 154887811#2 154887811#3 1137244053 153690569 153681226#0 153681226#1 153681226#2 -207359238#2 207359238#2"/>
    </vehicle>
    <vehicle id="36" type="passenger" depart="108.00">
        <route edges="174252532 158184978#2 158184978#3 158184978#4 260285712#2 1133443382 153681220#0 158184970#0 158184970#1 158184970#2 158184970#3 158184970#4 -693282577"/>
    </vehicle>
    <vehicle id="37" type="passenger" depart="111.00">
        <route edges="158199186#1 158199186#2 158199186#3 158199186#4 1126855603 1126855609 1126855608 1126855607 1126855606 158184972#0 158184972#1 158184972#2 158184972#3 158184972#4 158184971 153681220#2 153690576#0 153690576#1 153690576#2 153681221#0 153681221#1 1137244053 153690569 153681226#0 153681226#1 153681226#2 153681226#3 153681219"/>
    </vehicle>
    <vehicle id="38" type="passenger" depart="114.00">
        <route edges="191546402#1 191546399#0 158199186#1 158199186#2 158199186#3 158199186#4 1126855603 1126855609 1126855608 1126855607 1126855606 158184972#0 158184972#1 158184972#2 158184972#3 158184972#4 158184971 153681220#2 153690576#0 153690576#1 153690576#2 153681221#0 154887830#0 154887830#1"/>
    </vehicle>
    <vehicle id="39" type="passenger" depart="117.00">
        <route edges="-191559103#1 -191559104#1 191559107#1 191559107#2 158199182#3 158199182#4 -191546399#1 158199186#1 158199186#2 -191545877 191545879#5 -191545879#5"/>
    </vehicle>
    <vehicle id="40" type="passenger" depart="120.00">
        <route edges="158028071#0 -158028079#6 -158028079#5 -158028079#4 -158028079#3 -158028079#2 -158028079#1 -158028079#0 157970121#1 157970121#2 157970121#3 157970121#4 157970121#5 1133443385 153690582 260285712#0 260285712#1 260285712#2 1133443382 153681220#0 158184970#0 158184970#1 158184970#2 158184970#3 158184970#4 158184970#5 158184970#6 1126855605 158199182#0 158199182#1 158199182#2 158199182#3 -191558825#2"/>
    </vehicle>
    <vehicle id="41" type="passenger" depart="123.00">
        <route edges="158184968#1 158184968#2 158184968#3 158184968#4 1126855608 1126855607 1126855606 158184974 1126855605 1126855604 1126855603 158184969#0 191363023#0 191363023#1 191363023#2 191363023#3 191363023#4 191363023#5 191363023#6 191363023#7 191363023#8 191363023#9"/>
    </vehicle>
    <vehicle id="42" type="passenger" depart="126.00">
        <route edges="153681226#0 153681226#1 153681226#2 153681226#3 1134514478 260285711#0 260285711#1 260285711#2 153690575#0 153690575#1 153690575#2 153690575#3 260285714 1136736662 1133443385 1133443384 153681221#0 154887830#0 154887830#1 154887830#2 154887830#3 1126855611 1126855610 1126855614 158199178#0 158199178#1 158199178#2 158199178#3 158199178#4 158199178#5 154887826#0 -191150578#1 -191150578#0"/>
    </vehicle>
    <vehicle id="43" type="passenger" depart="129.00">
        <route edges="693361675 -693361675 154887823#1 154887823#2 1126855574 1126855580 1126855579 1126855578 1126855577 1126855576 1126855575 157970121#0 158028079#0 158028079#1 158028079#2 158028079#3 158028079#4 158028079#5 158028079#6 158028071#1 157973066#1"/>
    </vehicle>
    <vehicle id="44" type="passenger" depart="132.00">
        <route edges="-158308033 158308033 154887839#4 154887823#0 154887823#1 154887823#2 1126855574 1126855580 1126855579 1126855578 1126855577 1126855576 1126855575 157970121#0 158028079#0 158028079#1 158028079#2 158028079#3 158028079#4 158028079#5 158028079#6 -158028071#0"/>
    </vehicle>
    <vehicle id="45" type="passenger" depart="135.00">
        <route edges="-158308044#0 158308032#4 1101376190 1101376191 153690575#2 153690575#3 260285714 1136736662 1133443385 1133443384 153681221#0 154887830#0 154887830#1 154887830#2 154887830#3 1126855611 1126855610 1126855614 158199178#0 158199178#1 158199178#2 158199178#3 158199997#1 158199997#2 158199997#3 158199997#4 158199997#5 158199997#6 158184975#4 158184975#5 158184975#6 158184975#7 158184975#8 158184975#0 158184975#1"/>
    </vehicle>
    <vehicle id="46" type="passenger" depart="138.00">
        <route edges="158320867#0 -158320867#0 154887815#1 154887815#2 154887815#3 154887815#4 158199189 154887811#0 154887811#1 154887811#2 154887811#3 1137244053 1134514476 260285714 1136736662 1133443385 153690582"/>
    </vehicle>
    <vehicle id="47" type="passenger" depart="141.00">
        <route edges="-158028074#4 -158028074#3 -158028074#2 -158028074#1 -158028074#0 158028048 157970121#5 1133443385"/>
    </vehicle>
    <vehicle id="48" type="passenger" depart="144.00">
        <route edges="693353414 157970119#4 157970119#5 157970119#6 157970119#7 260285711#2 1134514477 153681226#0 153681226#1 153681226#2 153681226#3 1134514478 260285711#0 157970117#0 -158004709#9 -158004709#8 -158004709#7 -158004709#6 -158004709#5 -158004709#4 -158004709#3 -158004709#2 -158004709#1 158004709#1"/>
    </vehicle>
    <vehicle id="49" type="passenger" depart="147.00">
        <route edges="689583746 158184978#3 158184978#4 260285712#2 1133443382 153681220#0 153681220#1 153681220#2 153690576#0 -158640623 158640620#8 158640620#9"/>
    </vehicle>
    <vehicle id="50" type="passenger" depart="150.00">
        <route edges="-1149146207 693344853 158028048 157970121#5 1133443385 1133443384 153681221#0 153681221#1 1137244053 1134514476 260285714 154887839#0 -158308032#9 -158308032#8 -158308032#7 -158308032#6 -158308032#5 158308032#5"/>
    </vehicle>
    <vehicle id="51" type="passenger" depart="153.00">
        <route edges="158199994 158199993#0 158199993#1 158184975#2 158199995#0 158199995#1 158199995#2 158199995#3 158199995#4 158199995#5 154887815#2 154887815#3 154887815#4 158199189 154887811#0 154887811#1 154887811#2 154887811#3 1137244053 153690569 153681226#0 153681226#1 153681226#2 153681226#3 1134514478 260285711#0 157970117#0 -158004709#9 -158004709#8 -158004709#7 158004709#7"/>
    </vehicle>
    <vehicle id="52" type="passenger" depart="156.00">
        <route edges="-191559103#2 -191559103#1 191559104#2 158184970#4 -693282577 158184972#1 158184972#2 158184972#3 158184972#4 158184971 153681220#2 1133443383 260285712#0 158184977#0 158184977#1 158184977#2 158184977#3"/>
    </vehicle>
    <vehicle id="53" type="passenger" depart="159.00">
        <route edges="-158308044#1 -158308044#0 158308032#4 1101376190 1101376191 153690575#2 153690575#3 260285714 1136736662 1133443385 1133443384 153681221#0 154887830#0 154887830#1 154887830#2 154887830#3 1126855611 1126855610 1126855614 1126855613 158199189 154887811#0"/>
    </vehicle>
    <vehicle id="54" type="passenger" depart="162.00">
        <route edges="154887829 1126855620 153747151 1126855619 154887808#0 154887808#1 154887808#2 154887815#0 154887815#1 154887815#2 154887815#3 154887815#4 158199189 154887811#0 154887811#1 154887811#2 154887811#3 1137244053 1134514476 260285714"/>
    </vehicle>
    <vehicle id="55" type="passenger" depart="165.00">
        <route edges="174252532 158184978#2 158184978#3 158184978#4 260285712#2 1133443382 153681220#0 158184970#0 158184970#1 158184970#2 158184970#3 -191559104#2 -191559103#0"/>
    </vehicle>
    <vehicle id="56" type="passenger" depart="168.00">
        <route edges="157970121#1 157970121#2 157970121#3 157970121#4 157970121#5 1133443385 1133443384 153681221#0 154887830#0 154887830#1 -689094617 154887811#2 -158320863#8 -158496681"/>
    </vehicle>
    <vehicle id="57" type="passenger" depart="171.00">
        <route edges="191546402#0 191546402#1 191546399#0 158199186#1 158199186#2 158199186#3 158199186#4 1126855603 1126855609 1126855608 1126855607 1126855606 158184972#0 158184972#1 158184972#2 158184972#3 -158640620#9 -158640620#8 -158640620#7 -158640620#6 -158640620#5 -158640620#4 -158640620#3 -158640620#2 158640638#0"/>
    </vehicle>
    <vehicle id="58" type="passenger" depart="174.00">
        <route edges="-689094617 154887811#2 154887811#3 1137244053 1134514476 260285714 1136736662 1133443385 153690582 260285712#0 158184977#0 158184977#1"/>
    </vehicle>
    <vehicle id="59" type="passenger" depart="177.00">
        <route edges="158184972#1 158184972#2 158184972#3 158184972#4 158184971 153681220#2 153690576#0 153690576#1 153690576#2 153681221#0 153681221#1 1137244053 153690569 153681226#0 158320871#0 158320871#1 158320871#2 158320871#3 158320861#0 158320861#1 -158320867#5"/>
    </vehicle>
    <vehicle id="60" type="passenger" depart="180.00">
        <route edges="158308557 158308540#2 158308540#3 158320873#3 153681226#2 153681226#3 1134514478 260285711#0 157970117#0 -158004709#9 -158004709#8 158004709#8"/>
    </vehicle>
    <vehicle id="61" type="passenger" depart="183.00">
        <route edges="158320863#4 -158320863#4 -158320863#3 -158320863#2 -158320863#1 -158320863#0 158320871#1 693303883 158320873#2 158320873#3 153681226#2 153681226#3 1134514478 260285711#0 157970117#0 -158004709#9 -158004709#8 -158004709#7 -158004709#6 -158004709#5 -158004709#4 -158004709#3 -158004709#2 158004709#2"/>
    </vehicle>
    <vehicle id="63" type="passenger" depart="189.00">
        <route edges="-158004709#4 158004709#4 158004709#5 158004709#6 158004709#7 158004709#8 158004709#9 157970117#1 689194908 157970119#6 157970119#7 260285711#2 153690575#0 153690575#1 153690575#2 153690575#3 260285714 1136736662 1133443385 153690582 260285712#0 260285712#1 260285712#2 1133443382 153681220#0 158184970#0 158184970#1 158184970#2 158184970#3 -191559104#2 191559104#2"/>
    </vehicle>
    <vehicle id="64" type="passenger" depart="192.00">
        <route edges="191150578#1 154887826#1 154887826#2 693239212 154887808#1 154887808#2 154887815#0 154887815#1 154887815#2 154887815#3 154887815#4 158199189 154887811#0 154887811#1 154887811#2 154887811#3 1137244053 153690569 153681226#0 158320871#0 158320871#1 693303883 158320873#2 158320873#3"/>
    </vehicle>
    <vehicle id="65" type="passenger" depart="195.00">
        <route edges="-689639152 689639152 158184978#1 158184978#2 158184978#3 158184978#4 260285712#2 1133443382 153681220#0 153681220#1 153681220#2 1133443383 260285712#0 158184977#0 -164600317 -158028074#6"/>
    </vehicle>
    <vehicle id="66" type="passenger" depart="198.00">
        <route edges="191150578#0 191150578#1 154887826#1 154887826#2 693239212 154887808#1 154887808#2 154887815#0 154887815#1 154887815#2 154887815#3 154887815#4 158199189 154887811#0 154887811#1 154887811#2 154887811#3 1137244053 153690569 153681226#0 153681226#1 153681226#2 153681226#3 1134514478 260285711#0 260285711#1"/>
    </vehicle>
    <vehicle id="67" type="passenger" depart="201.00">
        <route edges="-158308032#6 -158308032#5 -158308032#4 -158308032#3 -158308032#2 -158308032#1 -158308032#0 157970119#7 260285711#2 1134514477 153681226#0 153681226#1 153681226#2 153681226#3 1134514478 260285711#0 157970117#0 157970117#1 157970117#2 157970117#3 157970117#4"/>
    </vehicle>
    <vehicle id="68" type="passenger" depart="204.00">
        <route edges="-158028079#0 157970121#1 157970121#2 157970121#3 157970121#4 157970121#5 1133443385 1133443384 153681221#0 153681221#1 1137244053 153690569 153681226#0 153681226#1 153681226#2 -207359238#2 -207359239 -158308540#2 -158308557 158308548#1 158308548#2"/>
    </vehicle>
    <vehicle id="69" type="passenger" depart="207.00">
        <route edges="158308562#1 -158004719 158004719 -158308562#1 -158308562#0"/>
    </vehicle>
    <vehicle id="70" type="passenger" depart="210.00">
        <route edges="154992383#1 154992383#2 1126855615 1126855621 1126855620 153747151 1126855619 154887808#0 154887808#1 154887808#2 154887815#0 154887815#1 154887815#2 154887815#3 154887815#4 158199189 154887811#0 154887811#1 154887811#2 154887811#3 1137244053 153690569 153681226#0 153681226#1 153681226#2 153681226#3 1134514478 260285711#0 157970117#0 -158004709#9 -158004709#8 -158004709#7 -158004709#6 -158004709#5 -158004709#4 -158004709#3 -158004709#2 158004732"/>
    </vehicle>
    <vehicle id="71" type="passenger" depart="213.00">
        <route edges="-191559103#1 191559104#2 158184970#4 -693282577 158184972#1 158184972#2 158184972#3 158184972#4 158184971 153681220#2 153690576#0 153690576#1 -158640638#1 158640638#1"/>
    </vehicle>
    <vehicle id="72" type="passenger" depart="216.00">
        <route edges="153813982#1 153813982#2 153813982#3 1126855619 154887808#0 154887808#1 154887808#2 154887815#0 154887815#1 154887815#2 154887815#3 154887815#4 158199189 1126855612 1126855611 158199197#0 158199197#1 158199197#2 158199197#3 158199197#4 158199197#5 158640628 158640620#7 158640620#8 -158640643"/>
    </vehicle>
    <vehicle id="73" type="passenger" depart="219.00">
        <route edges="158004709#9 157970117#1 689194908 157970119#6 158308032#0 158308032#1 158308034#0 158308034#1"/>
    </vehicle>
    <vehicle id="74" type="passenger" depart="222.00">
        <route edges="-158640620#8 -158640620#7 -158640620#6 -158640620#5 -158640620#4 -158640620#3 -158640620#2 -158640620#1 -158640620#0 154887830#1 154887830#2 154887830#3 1126855611 1126855610 1126855614 158199178#0 158199178#1 158199178#2 693274884 -693274884"/>
    </vehicle>
    <vehicle id="75" type="passenger" depart="225.00">
        <route edges="693344853 158028048 157970121#5 1133443385 1133443384 153681221#0 154887830#0 154887830#1 154887830#2 154887830#3 1126855611 1126855610 1126855614 158199178#0 158199178#1"/>
    </vehicle>
    <vehicle id="76" type="passenger" depart="228.00">
        <route edges="154887815#2 154887815#3 154887815#4 158199189 154887811#0 154887811#1 154887811#2 154887811#3 1137244053 1134514476 260285714 154887839#0 154887839#1 154887839#2 154887839#3 154887839#4 154887823#0 154887823#1 154887823#2 1126855574 157973069#0 157973069#1"/>
    </vehicle>
    <vehicle id="77" type="passenger" depart="231.00">
        <route edges="-158308540#3 207359239 207359238#2 153681226#3 1134514478 260285711#0 260285711#1 260285711#2 153690575#0 153690575#1 153690575#2 153690575#3 260285714 1136736662 1133443385 153690582 260285712#0 260285712#1 260285712#2 1133443382 153681220#0 158184970#0 158184970#1 158184970#2 158184970#3 158184970#4 158184970#5 158184970#6 1126855605 1126855604 1126855603 158184969#0 191363023#0 191363023#1 -191363023#1"/>
    </vehicle>
    <vehicle id="78" type="passenger" depart="234.00">
        <route edges="1116192419 1116192420 158496689 158320863#3 158320863#4 158320863#5 158320863#6 158320863#7 158320863#8 154887811#3 1137244053 1134514476 260285714 154887839#0 154887839#1 154887839#2 154887839#3 154887839#4 154887823#0 154887823#1 154887823#2 1126855574 1126855580 1126855579 1126855578 1126855577 1126855576 1126855575 157970121#0 158028079#0 158028079#1 158028079#2 158028079#3 158028079#4"/>
    </vehicle>
    <vehicle id="79" type="passenger" depart="237.00">
        <route edges="-191363023#2 -191363023#1 -191363023#0 158184969#1 158184969#2 158184969#3 158184969#4 158184969#5 158184975#6 158184975#7 158184975#8 158184975#0 158184975#1 158184975#2 158199995#0 158199995#1 158199995#2 158199995#3 158199995#4 158199178#5 154887826#0 -191150578#1 -191150578#0"/>
    </vehicle>
    <vehicle id="80" type="passenger" depart="240.00">
        <route edges="-158028079#2 -158028079#1 -158028079#0 157970121#1 157970121#2 157970121#3 157970121#4 157970121#5 1133443385 1133443384 153681221#0 154887830#0 154887830#1 154887830#2 154887830#3 1126855611 1126855610 1126855614 158199178#0 158199178#1 158199178#2 158199178#3 158199997#1 158199997#2 158199997#3 158199997#4 158199997#5 158199997#6 158184975#4"/>
    </vehicle>
    <vehicle id="81" type="passenger" depart="243.00">
        <route edges="-191363023#1 -191363023#0 158184969#1 689057506 158184968#4 1126855608 1126855607 1126855606 158184974 1126855605 158199182#0 158199182#1 158199182#2 158199182#3 158199182#4 -191546399#1 158199186#1 158199186#2 -191545877 -191545879#4 -191545879#3 -191545879#2 -191545879#1 -191545879#0 191545879#0 191545879#1 191545879#2 191545879#3 191545879#4"/>
    </vehicle>
    <vehicle id="82" type="passenger" depart="246.00">
        <route edges="158640626#0 158199197#7 1126855606 158184972#0 158184972#1 158184972#2 158184972#3 158184972#4 158184971 153681220#2 153690576#0 153690576#1 153690576#2 153681221#0 153681221#1 1137244053 1134514476 260285714 154887839#0 -158308032#9 -158308032#8 -158308032#7 -158308032#6 -158308032#5 -158308032#4 -158308032#3 -158308032#2"/>
    </vehicle>
    <vehicle id="83" type="passenger" depart="249.00">
        <route edges="-191363023#8 -191363023#7 -191363023#6 -191363023#5 -191363023#4 -191363023#3 -191363023#2 -191363023#1 -191363023#0 158184969#1 689057506 158184968#4 1126855608 158199194#0 158199194#1 158199194#2 158199194#3 158199194#4 1126855614 1126855613 158199189"/>
    </vehicle>
    <vehicle id="84" type="passenger" depart="252.00">
        <route edges="-158640638#1 158640638#1 153690576#2 153681221#0 153681221#1 1137244053 153690569 153681226#0 153681226#1 153681226#2 -207359238#2 -207359239 -158308540#2 -158308557 158308548#1 158308548#2 158308548#3 158308548#4 158308548#5 -158320862"/>
    </vehicle>
    <vehicle id="85" type="passenger" depart="255.00">