<?xml version="1.0" encoding="UTF-8"?>

<!-- generated on 2024-02-17 23:05:55.233092 by randomTrips.py v1_18_0+1773-9554271d25e
<configuration>
    <net-file value="map.net.xml"/>
    <weights-prefix value="trips"/>
    <output-trip-file value="trips.rou.xml"/>
    <intermediate value="1"/>
    <validate value="True"/>
    <end value="30.0"/>
</configuration>
-->

<!-- generated on 2024-02-17 23:05:55 by Eclipse SUMO duarouter Version v1_18_0+1773-9554271d25e
<configuration xmlns:xsi="http://www.w3.org/2001/XMLSchema-instance" xsi:noNamespaceSchemaLocation="http://sumo.dlr.de/xsd/duarouterConfiguration.xsd">

    <input>
        <net-file value="map.net.xml"/>
        <route-files value="trips.rou.xml"/>
    </input>

    <output>
        <output-file value="routes.rou.xml"/>
        <alternatives-output value="NUL"/>
    </output>

    <time>
        <begin value="0"/>
        <end value="30.0"/>
    </time>

    <report>
        <no-warnings value="true"/>
        <ignore-errors value="true"/>
        <no-step-log value="true"/>
    </report>

</configuration>
-->

<routes xmlns:xsi="http://www.w3.org/2001/XMLSchema-instance" xsi:noNamespaceSchemaLocation="http://sumo.dlr.de/xsd/routes_file.xsd">
    <vehicle id="0" depart="0.00">
        <route edges="158199178#0 158199178#1 158199178#2 693274884 154887815#4 158199189 154887811#0 154887811#1 154887811#2 -158320863#8 -158320863#7 -158320863#6 158320863#6 158320863#7 158320863#8 154887811#3 1137244053 153690569 153681226#0 153681226#1 153681226#2 153681226#3 1134514478 260285711#0 157970117#0 -158004709#9 -158004709#8 158004719 -158308562#1"/>
    </vehicle>
    <vehicle id="2" depart="2.00">
        <route edges="191363023#8 191363023#9 -191363023#9 -191363023#8 -191363023#7 -191363023#6 -191363023#5 -191363023#4 -191363023#3 -191363023#2 -191363023#1 -191363023#0 158184969#1 689057506 158184968#4 1126855608 158199194#0 158199194#1 158199194#2 158199194#3 158199194#4 1126855614 1126855613 158199189 154887811#0 154887811#1 154887811#2 -158320863#8 -158320863#7 -158320863#6 158320863#6 -158320863#6 -158320863#5 -158320863#4 -158320863#3 -158320863#2 -158320863#1 -158496682"/>
    </vehicle>
    <vehicle id="3" depart="3.00">
        <route edges="-158004724 158004709#4 158004709#5 158004709#6 158004709#7 158004709#8 158004709#9 157970117#1 689194908 157970119#6 157970119#7 260285711#2 1134514477 153681226#0 158320871#0 158320863#0 158320863#1 158320863#2 158320863#3 158320863#4 158320863#5 158320863#6 158320863#7 158320863#8 154887811#3 1137244053 1134514476 260285714 1136736662 1133443385 1133443384 153681221#0 154887830#0 158640620#0 158640620#1 158640620#2 158640620#3 -158640620#3"/>
    </vehicle>
    <vehicle id="6" depart="6.00">
        <route edges="158320869#6 -158320869#6 158496684 158320863#6 158320863#7 158320863#8 154887811#3 1137244053 1134514476 260285714 154887839#0 154887839#1 154887839#2 154887839#3 154887839#4 154887823#0 154887823#1 154887823#2 1126855574 1126855580 1126855579 1126855578 1126855577 157973070#0"/>
    </vehicle>
    <vehicle id="7" depart="7.00">
        <route edges="158199997#4 158199997#5 -689058485 158199995#1 158199995#2 158199995#3 158199995#4 158199995#5 154887815#2 154887815#3 154887815#4 158199189 154887811#0 154887811#1 154887811#2 -158320863#8 -158320863#7 -158320863#6 158320863#6 158320863#7 158320863#8 154887811#3 1137244053 1134514476 260285714 154887839#0 -158308032#9 -158308032#8 -158308032#7 -158308032#6"/>
    </vehicle>
    <vehicle id="10" depart="10.00">
        <route edges="158320869#4 158320869#5 158496684 158320863#6 158320863#7 158320863#8 154887811#3 1137244053 1134514476 260285714 1136736662 1133443385 1133443384 153681221#0 154887830#0 158640620#0 158640620#1 158640620#2 158640620#3 -158640620#3"/>
    </vehicle>
    <vehicle id="12" depart="12.00">
        <route edges="158496669 -158496669 -158320869#6 158496684 158320863#6 158320863#7 158320863#8 154887811#3 1137244053 1134514476 260285714 1136736662 1133443385 153690582 260285712#0 260285712#1 260285712#2 1133443382 153681220#0 158184970#0 158184970#1 158184970#2 158184970#3 158184970#4 158184970#5 158184970#6 1126855605 158199182#0 158199182#1 158199182#2 158199182#3 158199182#4 158199182#5"/>
    </vehicle>
    <vehicle id="13" depart="13.00">
        <route edges="158028079#3 -158028079#3 -158028079#2 -158028079#1 -158028079#0 157970121#1 157970121#2 157970121#3 157970121#4 157970121#5 1133443385 1133443384 153681221#0 154887830#0 154887830#1 -689094617 154887811#2 -158320863#8 -158320863#7 -158320863#6 158320863#6 158320863#7 158320863#8 154887811#3 1137244053 1134514476 260285714 154887839#0 154887839#1 154887839#2 154887839#3 154887839#4 154887823#0 154887823#1 154887823#2 1126855574 1126855580 1126855579 1126855578 1126855577 1126855576 1126855575 157970121#0 158028079#0 158028079#1 158028079#2 158028079#3 158028079#4 -158028052"/>
    </vehicle>
    <vehicle id="14" depart="14.00">
        <route edges="-191363023#0 158184969#1 689057506 158184968#4 1126855608 158199194#0 158199194#1 158199194#2 158199194#3 158199194#4 1126855614 1126855613 158199189 154887811#0 154887811#1 154887811#2 -158320863#8 -158320863#7 -158320863#6 158320863#6 158320863#7 158320863#8 154887811#3 1137244053 1134514476 260285714 154887839#0 154887839#1 154887839#2 154887839#3 154887839#4 154887823#0 154887823#1 154887823#2 1126855574 1126855580 1126855579 1126855578 1126855577 1126855576 1126855575 157970121#0 158028079#0 158028079#1 158028079#2 158028079#3 158028079#4 -158028052"/>
    </vehicle>
    <vehicle id="15" depart="15.00">
        <route edges="-191363023#4 -191363023#3 -191363023#2 -191363023#1 -191363023#0 158184969#1 689057506 158184968#4 1126855608 158199194#0 158199194#1 158199194#2 158199194#3 158199194#4 1126855614 1126855613 158199189 154887811#0 154887811#1 154887811#2 -158320863#8 -158320863#7 -158320863#6 158320863#6 158320863#7 158320863#8 154887811#3 1137244053 153690569 153681226#0 153681226#1 153681226#2 153681226#3 1134514478 260285711#0 157970117#0 -158004709#9 -158004709#8 158004719 -158308562#1"/>
    </vehicle>
    <vehicle id="16" depart="16.00">
        <route edges="158184978#3 158184978#4 260285712#2 1133443382 153681220#0 153681220#1 153681220#2 153690576#0 153690576#1 153690576#2 153681221#0 154887830#0 154887830#1 -689094617 154887811#2 -158320863#8 -158320863#7 -158320863#6 158320863#6 -158320863#6 -158320863#5 -158320863#4 -158320863#3 -158320863#2 -158320863#1 -158496682"/>
    </vehicle>
    <vehicle id="18" depart="18.00">
        <route edges="158199182#1 -191559103#2 -191559103#1 191559104#2 158184970#4 -693282577 158184972#1 158184972#2 158184972#3 158184972#4 158184971 153681220#2 153690576#0 153690576#1 153690576#2 153681221#0 154887830#0 154887830#1 -689094617 154887811#2 -158320863#8 -158320863#7 -158320863#6 158320863#6 158320863#7 158320863#8 154887811#3 1137244053 1134514476 260285714 154887839#0 -158308032#9 -158308032#8 -158308032#7 -158308032#6"/>
    </vehicle>
    <vehicle id="19" depart="19.00">
        <route edges="158308042#0 158308033 154887839#4 154887823#0 693361675 157970121#2 157970121#3 157970121#4 157970121#5 1133443385 1133443384 153681221#0 154887830#0 154887830#1 -689094617 154887811#2 -158320863#8 -158320863#7 -158320863#6 158320863#6 -158320863#6 -158320863#5 -158320863#4 -158320863#3 -158320863#2 -158320863#1 -158496682"/>
    </vehicle>
    <vehicle id="21" depart="21.00">
        <route edges="158199995#1 158199995#2 158199995#3 158199995#4 158199995#5 154887815#2 154887815#3 154887815#4 158199189 154887811#0 154887811#1 154887811#2 -158320863#8 -158320863#7 -158320863#6 158320863#6 158320863#7 158320863#8 154887811#3 1137244053 1134514476 260285714 154887839#0 154887839#1 154887839#2 154887839#3 154887839#4 154887823#0 154887823#1 154887823#2 1126855574 1126855580 1126855579 1126855578 1126855577 157973070#0"/>
    </vehicle>
    <vehicle id="22" depart="22.00">
        <route edges="-191363023#1 -191363023#0 158184969#1 689057506 158184968#4 1126855608 158199194#0 158199194#1 158199194#2 158199194#3 158199194#4 1126855614 1126855613 158199189 154887811#0 154887811#1 154887811#2 -158320863#8 -158320863#7 -158320863#6 158320863#6 158320863#7 158320863#8 154887811#3 1137244053 153690569 153681226#0 153681226#1 153681226#2 153681226#3 1134514478 260285711#0 157970117#0 -158004709#9 -158004709#8 158004719 -158308562#1"/>
    </vehicle>
    <vehicle id="25" depart="25.00">
        <route edges="153681220#2 153690576#0 153690576#1 153690576#2 153681221#0 154887830#0 154887830#1 -689094617 154887811#2 -158320863#8 -158320863#7 -158320863#6 158320863#6 -158320863#6 -158320863#5 -158320863#4 -158320863#3 -158320863#2 -158320863#1 -158496682"/>
    </vehicle>
    <vehicle id="27" depart="27.00">
        <route edges="-191558825#2 191559104#0 191559104#1 191559104#2 158184970#4 -693282577 158184972#1 158184972#2 158184972#3 158184972#4 158184971 153681220#2 153690576#0 153690576#1 153690576#2 153681221#0 154887830#0 154887830#1 -689094617 154887811#2 -158320863#8 -158320863#7 -158320863#6 158320863#6 158320863#7 158320863#8 154887811#3 1137244053 1134514476 260285714 1136736662 1133443385 153690582 260285712#0 260285712#1 260285712#2 1133443382 153681220#0 158184970#0 158184970#1 158184970#2 158184970#3 158184970#4 158184970#5 158184970#6 1126855605 158199182#0 158199182#1 158199182#2 158199182#3 158199182#4 158199182#5"/>
    </vehicle>
    <vehicle id="29" depart="29.00">
        <route edges="157973066#2 157973066#3 1126855575 157970121#0 157970121#1 157970121#2 157970121#3 157970121#4 157970121#5 1133443385 1133443384 153681221#0 154887830#0 154887830#1 -689094617 154887811#2 -158320863#8 -158320863#7 -158320863#6 158320863#6 158320863#7 158320863#8 154887811#3 1137244053 1134514476 260285714 154887839#0 154887839#1 154887839#2 154887839#3 154887839#4 154887823#0 154887823#1 154887823#2 1126855574 1126855580 1126855579 1126855578 1126855577 1126855576 1126855575 157970121#0 158028079#0 158028079#1 158028079#2 158028079#3 158028079#4 -158028052"/>
    </vehicle>
</routes>
