<?xml version="1.0" encoding="UTF-8"?>

<!-- generated on 2024-02-15 14:52:52.192521 by randomTrips.py v1_18_0+1773-9554271d25e
<configuration>
    <net-file value="map.net.xml"/>
    <weights-prefix value="trips"/>
    <route-file value="trips.rou.xml"/>
    <random value="True"/>
    <intermediate value="1"/>
    <validate value="True"/>
    <end value="25.0"/>
</configuration>
-->

<!-- generated on 2024-02-15 14:52:52 by Eclipse SUMO duarouter Version v1_18_0+1773-9554271d25e
<configuration xmlns:xsi="http://www.w3.org/2001/XMLSchema-instance" xsi:noNamespaceSchemaLocation="http://sumo.dlr.de/xsd/duarouterConfiguration.xsd">

    <input>
        <net-file value="map.net.xml"/>
        <route-files value="trips.trips.xml"/>
    </input>

    <output>
        <output-file value="trips.rou.xml"/>
        <alternatives-output value="NUL"/>
    </output>

    <time>
        <begin value="0"/>
        <end value="25.0"/>
    </time>

    <report>
        <no-warnings value="true"/>
        <ignore-errors value="true"/>
        <no-step-log value="true"/>
    </report>

</configuration>
-->

<routes xmlns:xsi="http://www.w3.org/2001/XMLSchema-instance" xsi:noNamespaceSchemaLocation="http://sumo.dlr.de/xsd/routes_file.xsd">
    <vehicle id="4" depart="4.00">
        <route edges="154887808#1 154887808#2 154887815#0 154887815#1 154887815#2 154887815#3 154887815#4 158199189 154887811#0 154887811#1 154887811#2 -158320863#8 -158320863#7 -158496680 158496680 -158320863#6 -158320863#5 -158320863#4 -158320863#3 -158320863#2 -158320863#1 -158496682"/>
    </vehicle>
    <vehicle id="5" depart="5.00">
        <route edges="158320869#1 158320869#2 1116192419 1116192420 158496689 158320863#3 158320863#4 158320863#5 158320863#6 -158496680 158496680 158320863#7 158320863#8 154887811#3 1137244053 1134514476 260285714 154887839#0 154887839#1 154887839#2 154887839#3 154887839#4 154887823#0 154887823#1 154887823#2 1126855574 1126855580 1126855579 1126855578 1126855577 157973070#0"/>
    </vehicle>
    <vehicle id="6" depart="6.00">
        <route edges="-174252536 158184978#4 260285712#2 1133443382 153681220#0 153681220#1 153681220#2 153690576#0 153690576#1 153690576#2 153681221#0 154887830#0 154887830#1 -689094617 154887811#2 -158320863#8 -158320863#7 -158496680 158496680 -158320863#6 -158320863#5 -158320863#4 -158320863#3 -158320863#2 -158320863#1 -158496682"/>
    </vehicle>
    <vehicle id="11" depart="11.00">
        <route edges="158199997#2 158199997#3 -689049482 158199995#3 158199995#4 158199995#5 154887815#2 154887815#3 154887815#4 158199189 154887811#0 154887811#1 154887811#2 -158320863#8 -158320863#7 -158496680 158496680 158320863#7 158320863#8 154887811#3 1137244053 1134514476 260285714 154887839#0 154887839#1 154887839#2 154887839#3 154887839#4 154887823#0 154887823#1 154887823#2 1126855574 1126855580 1126855579 1126855578 1126855577 157973070#0"/>
    </vehicle>
    <vehicle id="12" depart="12.00">
        <route edges="1101376191 153690575#2 153690575#3 260285714 1136736662 1133443385 1133443384 153681221#0 154887830#0 154887830#1 -689094617 154887811#2 -158320863#8 -158320863#7 -158496680 158496680 -158320863#6 -158320863#5 -158320863#4 -158320863#3 -158320863#2 -158320863#1 -158496682"/>
    </vehicle>
    <vehicle id="19" depart="19.00">
        <route edges="157970121#5 1133443385 1133443384 153681221#0 154887830#0 154887830#1 -689094617 154887811#2 -158320863#8 -158320863#7 -158496680 158496680 -158320863#6 -158320863#5 -158320863#4 -158320863#3 -158320863#2 -158320863#1 -158496682"/>
    </vehicle>
</routes>
