<?xml version="1.0" encoding="UTF-8"?>

<!-- generated on 2023-09-22 09:03:26 by Eclipse SUMO sumo Version v1_18_0+1729-39cac3ca09b
-->

<configuration xmlns:xsi="http://www.w3.org/2001/XMLSchema-instance" xsi:noNamespaceSchemaLocation="http://sumo.dlr.de/xsd/sumoConfiguration.xsd">

    <input>
        <net-file value="map.net.xml"/>
        <route-files value="trips.rou.xml"/>
        <additional-files value="map.poly.xml"/>
    </input>

</configuration>
