<?xml version="1.0" encoding="UTF-8"?>

<!-- generated on 2023-09-21 22:08:09 by Eclipse SUMO netconvert Version v1_18_0+1729-39cac3ca09b
<configuration xmlns:xsi="http://www.w3.org/2001/XMLSchema-instance" xsi:noNamespaceSchemaLocation="http://sumo.dlr.de/xsd/netconvertConfiguration.xsd">

    <input>
        <osm-files value="map.osm"/>
    </input>

    <output>
        <output-file value="map.net.xml"/>
    </output>

    <projection>
        <proj.utm value="true"/>
    </projection>

</configuration>
-->

<net version="1.16" junctionCornerDetail="5" limitTurnSpeed="5.50" xmlns:xsi="http://www.w3.org/2001/XMLSchema-instance" xsi:noNamespaceSchemaLocation="http://sumo.dlr.de/xsd/net_file.xsd">

    <location netOffset="-644353.40,-2496660.68" convBoundary="0.00,0.00,1734.66,1581.42" origBoundary="88.404221,22.570467,88.420988,22.584779" projParameter="+proj=utm +zone=45 +ellps=WGS84 +datum=WGS84 +units=m +no_defs"/>

    <type id="highway.cycleway" priority="1" numLanes="1" speed="5.56" allow="bicycle" oneway="0" width="2.00"/>
    <type id="highway.footway" priority="1" numLanes="1" speed="2.78" allow="pedestrian" oneway="1" width="2.00"/>
    <type id="highway.living_street" priority="2" numLanes="1" speed="2.78" disallow="tram rail_urban rail rail_electric rail_fast ship" oneway="0"/>
    <type id="highway.path" priority="1" numLanes="1" speed="5.56" allow="pedestrian bicycle" oneway="0" width="2.00"/>
    <type id="highway.residential" priority="3" numLanes="1" speed="13.89" disallow="tram rail_urban rail rail_electric rail_fast ship" oneway="0"/>
    <type id="highway.secondary" priority="11" numLanes="1" speed="27.78" disallow="tram rail_urban rail rail_electric rail_fast ship" oneway="0"/>
    <type id="highway.service" priority="1" numLanes="1" speed="5.56" allow="pedestrian delivery bicycle" oneway="0"/>
    <type id="highway.tertiary" priority="10" numLanes="1" speed="22.22" disallow="tram rail_urban rail rail_electric rail_fast ship" oneway="0"/>
    <type id="highway.tertiary_link" priority="5" numLanes="1" speed="22.22" disallow="tram rail_urban rail rail_electric rail_fast ship" oneway="0"/>
    <type id="highway.unclassified" priority="4" numLanes="1" speed="13.89" disallow="tram rail_urban rail rail_electric rail_fast ship" oneway="0"/>

    <edge id=":10079072847_0" function="internal">
        <lane id=":10079072847_0_0" index="0" disallow="tram rail_urban rail rail_electric rail_fast ship" speed="6.82" length="9.43" shape="1082.02,846.65 1080.95,844.44 1079.35,843.05 1077.23,842.48 1074.59,842.72"/>
    </edge>
    <edge id=":10079072847_1" function="internal">
        <lane id=":10079072847_1_0" index="0" disallow="tram rail_urban rail rail_electric rail_fast ship" speed="13.89" length="14.45" shape="1082.02,846.65 1080.80,843.18 1079.52,839.83 1078.43,836.45 1077.79,832.87"/>
    </edge>
    <edge id=":10079072847_2" function="internal">
        <lane id=":10079072847_2_0" index="0" disallow="tram rail_urban rail rail_electric rail_fast ship" speed="3.65" length="1.44" shape="1082.02,846.65 1082.43,845.27"/>
    </edge>
    <edge id=":10079072847_9" function="internal">
        <lane id=":10079072847_9_0" index="0" disallow="tram rail_urban rail rail_electric rail_fast ship" speed="3.65" length="3.23" shape="1082.43,845.27 1083.08,844.65 1083.96,844.80 1085.08,845.71"/>
    </edge>
    <edge id=":10079072847_3" function="internal">
        <lane id=":10079072847_3_0" index="0" disallow="tram rail_urban rail rail_electric rail_fast ship" speed="13.89" length="14.45" shape="1080.91,831.92 1081.54,835.50 1082.61,838.89 1083.87,842.24 1085.08,845.71"/>
    </edge>
    <edge id=":10079072847_4" function="internal">
        <lane id=":10079072847_4_0" index="0" disallow="tram rail_urban rail rail_electric rail_fast ship" speed="8.32" length="3.85" shape="1080.91,831.92 1080.83,835.76"/>
    </edge>
    <edge id=":10079072847_5" function="internal">
        <lane id=":10079072847_5_0" index="0" disallow="tram rail_urban rail rail_electric rail_fast ship" speed="3.67" length="1.47" shape="1080.91,831.92 1080.48,833.32"/>
    </edge>
    <edge id=":10079072847_10" function="internal">
        <lane id=":10079072847_10_0" index="0" disallow="tram rail_urban rail rail_electric rail_fast ship" speed="8.32" length="10.01" shape="1080.83,835.76 1080.82,836.04 1079.74,839.21 1077.66,841.44 1074.59,842.72"/>
    </edge>
    <edge id=":10079072847_11" function="internal">
        <lane id=":10079072847_11_0" index="0" disallow="tram rail_urban rail rail_electric rail_fast ship" speed="3.67" length="3.30" shape="1080.48,833.32 1079.82,833.95 1078.92,833.80 1077.79,832.87"/>
    </edge>
    <edge id=":10079072847_6" function="internal">
        <lane id=":10079072847_6_0" index="0" disallow="tram rail_urban rail rail_electric rail_fast ship" speed="6.68" length="8.62" shape="1073.88,839.60 1075.78,838.81 1077.07,837.42 1077.74,835.44 1077.79,832.87"/>
    </edge>
    <edge id=":10079072847_7" function="internal">
        <lane id=":10079072847_7_0" index="0" disallow="tram rail_urban rail rail_electric rail_fast ship" speed="8.26" length="14.31" shape="1073.88,839.60 1077.85,839.25 1081.04,840.14 1083.45,842.30 1085.08,845.71"/>
    </edge>
    <edge id=":10079072847_8" function="internal">
        <lane id=":10079072847_8_0" index="0" disallow="tram rail_urban rail rail_electric rail_fast ship" speed="3.65" length="4.67" shape="1073.88,839.60 1075.23,840.12 1075.79,840.81 1075.58,841.68 1074.59,842.72"/>
    </edge>
    <edge id=":10079072848_0" function="internal">
        <lane id=":10079072848_0_0" index="0" disallow="tram rail_urban rail rail_electric rail_fast ship" speed="5.99" length="7.75" shape="1023.53,860.17 1022.74,857.81 1021.63,856.28 1020.19,855.57 1018.43,855.68"/>
    </edge>
    <edge id=":10079072848_1" function="internal">
        <lane id=":10079072848_1_0" index="0" disallow="tram rail_urban rail rail_electric rail_fast ship" speed="13.89" length="14.56" shape="1023.53,860.17 1020.35,845.96"/>
    </edge>
    <edge id=":10079072848_2" function="internal">
        <lane id=":10079072848_2_0" index="0" disallow="tram rail_urban rail rail_electric rail_fast ship" speed="7.84" length="4.14" shape="1023.53,860.17 1023.60,856.90 1023.94,856.10"/>
    </edge>
    <edge id=":10079072848_3" function="internal">
        <lane id=":10079072848_3_0" index="0" disallow="tram rail_urban rail rail_electric rail_fast ship" speed="3.65" length="1.44" shape="1023.53,860.17 1024.04,858.82"/>
    </edge>
    <edge id=":10079072848_16" function="internal">
        <lane id=":10079072848_16_0" index="0" disallow="tram rail_urban rail rail_electric rail_fast ship" speed="7.84" length="9.44" shape="1023.94,856.10 1024.97,853.64 1027.27,850.98 1030.16,849.49"/>
    </edge>
    <edge id=":10079072848_17" function="internal">
        <lane id=":10079072848_17_0" index="0" disallow="tram rail_urban rail rail_electric rail_fast ship" speed="3.65" length="3.23" shape="1024.04,858.82 1024.74,858.26 1025.61,858.47 1026.65,859.47"/>
    </edge>
    <edge id=":10079072848_4" function="internal">
        <lane id=":10079072848_4_0" index="0" disallow="tram rail_urban rail rail_electric rail_fast ship" speed="6.56" length="9.17" shape="1030.87,852.61 1028.55,853.51 1027.08,854.95 1026.44,856.93 1026.65,859.47"/>
    </edge>
    <edge id=":10079072848_5" function="internal">
        <lane id=":10079072848_5_0" index="0" disallow="tram rail_urban rail rail_electric rail_fast ship" speed="13.89" length="12.81" shape="1030.87,852.61 1018.43,855.68"/>
    </edge>
    <edge id=":10079072848_6" function="internal">
        <lane id=":10079072848_6_0" index="0" disallow="tram rail_urban rail rail_electric rail_fast ship" speed="7.80" length="13.45" shape="1030.87,852.61 1027.64,852.53 1024.43,851.15 1021.81,848.83 1020.35,845.96"/>
    </edge>
    <edge id=":10079072848_7" function="internal">
        <lane id=":10079072848_7_0" index="0" disallow="tram rail_urban rail rail_electric rail_fast ship" speed="3.65" length="4.67" shape="1030.87,852.61 1029.52,852.10 1028.95,851.41 1029.17,850.54 1030.16,849.49"/>
    </edge>
    <edge id=":10079072848_8" function="internal">
        <lane id=":10079072848_8_0" index="0" disallow="tram rail_urban rail rail_electric rail_fast ship" speed="6.50" length="9.03" shape="1023.47,845.26 1024.35,847.58 1025.76,849.05 1027.69,849.69 1030.16,849.49"/>
    </edge>
    <edge id=":10079072848_9" function="internal">
        <lane id=":10079072848_9_0" index="0" disallow="tram rail_urban rail rail_electric rail_fast ship" speed="13.89" length="14.56" shape="1023.47,845.26 1026.65,859.47"/>
    </edge>
    <edge id=":10079072848_10" function="internal">
        <lane id=":10079072848_10_0" index="0" disallow="tram rail_urban rail rail_electric rail_fast ship" speed="7.64" length="4.35" shape="1023.47,845.26 1023.53,848.34 1023.16,849.55"/>
    </edge>
    <edge id=":10079072848_11" function="internal">
        <lane id=":10079072848_11_0" index="0" disallow="tram rail_urban rail rail_electric rail_fast ship" speed="3.65" length="1.44" shape="1023.47,845.26 1022.95,846.61"/>
    </edge>
    <edge id=":10079072848_18" function="internal">
        <lane id=":10079072848_18_0" index="0" disallow="tram rail_urban rail rail_electric rail_fast ship" speed="7.64" length="8.06" shape="1023.16,849.55 1022.57,851.53 1020.80,854.18 1018.43,855.68"/>
    </edge>
    <edge id=":10079072848_19" function="internal">
        <lane id=":10079072848_19_0" index="0" disallow="tram rail_urban rail rail_electric rail_fast ship" speed="3.65" length="3.23" shape="1022.95,846.61 1022.26,847.17 1021.39,846.95 1020.35,845.96"/>
    </edge>
    <edge id=":10079072848_12" function="internal">
        <lane id=":10079072848_12_0" index="0" disallow="tram rail_urban rail rail_electric rail_fast ship" speed="6.29" length="8.06" shape="1017.59,852.59 1019.26,851.77 1020.28,850.39 1020.64,848.45 1020.35,845.96"/>
    </edge>
    <edge id=":10079072848_13" function="internal">
        <lane id=":10079072848_13_0" index="0" disallow="tram rail_urban rail rail_electric rail_fast ship" speed="13.89" length="12.95" shape="1017.59,852.59 1030.16,849.49"/>
    </edge>
    <edge id=":10079072848_14" function="internal">
        <lane id=":10079072848_14_0" index="0" disallow="tram rail_urban rail rail_electric rail_fast ship" speed="7.37" length="12.30" shape="1017.59,852.59 1020.38,852.74 1023.14,854.28 1025.38,856.70 1026.65,859.47"/>
    </edge>
    <edge id=":10079072848_15" function="internal">
        <lane id=":10079072848_15_0" index="0" disallow="tram rail_urban rail rail_electric rail_fast ship" speed="3.65" length="4.67" shape="1017.59,852.59 1018.96,853.05 1019.55,853.72 1019.38,854.59 1018.43,855.68"/>
    </edge>
    <edge id=":10079072849_0" function="internal">
        <lane id=":10079072849_0_0" index="0" disallow="tram rail_urban rail rail_electric rail_fast ship" speed="27.78" length="9.41" shape="1014.12,859.80 1012.14,850.61"/>
        <lane id=":10079072849_0_1" index="1" disallow="tram rail_urban rail rail_electric rail_fast ship" speed="27.78" length="9.41" shape="1017.25,859.12 1015.26,849.93"/>
    </edge>
    <edge id=":10079072849_2" function="internal">
        <lane id=":10079072849_2_0" index="0" disallow="tram rail_urban rail rail_electric rail_fast ship" speed="5.84" length="6.77" shape="1017.25,859.12 1016.77,856.44 1016.63,854.46 1016.84,853.20 1017.39,852.65"/>
    </edge>
    <edge id=":10079072849_3" function="internal">
        <lane id=":10079072849_3_0" index="0" disallow="tram rail_urban rail rail_electric rail_fast ship" speed="5.68" length="6.90" shape="1018.24,855.73 1017.44,855.54 1016.68,854.50 1015.96,852.63 1015.26,849.93"/>
    </edge>
    <edge id=":10079072849_4" function="internal">
        <lane id=":10079072849_4_0" index="0" disallow="tram rail_urban rail rail_electric rail_fast ship" speed="3.65" length="4.67" shape="1018.24,855.73 1016.87,855.28 1016.27,854.61 1016.45,853.73 1017.39,852.65"/>
    </edge>
    <edge id=":10690737494_0" function="internal">
        <lane id=":10690737494_0_0" index="0" disallow="tram rail_urban rail rail_electric rail_fast ship" speed="13.89" length="14.37" shape="977.35,625.57 974.31,611.52"/>
    </edge>
    <edge id=":10690737494_1" function="internal">
        <lane id=":10690737494_1_0" index="0" disallow="tram rail_urban rail rail_electric rail_fast ship" speed="8.14" length="3.97" shape="977.35,625.57 977.11,621.75 977.15,621.61"/>
    </edge>
    <edge id=":10690737494_2" function="internal">
        <lane id=":10690737494_2_0" index="0" disallow="tram rail_urban rail rail_electric rail_fast ship" speed="3.65" length="1.44" shape="977.35,625.57 977.89,624.23"/>
    </edge>
    <edge id=":10690737494_9" function="internal">
        <lane id=":10690737494_9_0" index="0" disallow="tram rail_urban rail rail_electric rail_fast ship" speed="8.14" length="10.26" shape="977.15,621.61 978.15,618.71 980.49,616.44 984.13,614.94"/>
    </edge>
    <edge id=":10690737494_10" function="internal">
        <lane id=":10690737494_10_0" index="0" disallow="tram rail_urban rail rail_electric rail_fast ship" speed="3.65" length="3.23" shape="977.89,624.23 978.59,623.67 979.45,623.90 980.48,624.90"/>
    </edge>
    <edge id=":10690737494_3" function="internal">
        <lane id=":10690737494_3_0" index="0" disallow="tram rail_urban rail rail_electric rail_fast ship" speed="6.68" length="9.24" shape="984.94,618.04 982.56,619.01 981.02,620.48 980.33,622.44 980.48,624.90"/>
    </edge>
    <edge id=":10690737494_4" function="internal">
        <lane id=":10690737494_4_0" index="0" disallow="tram rail_urban rail rail_electric rail_fast ship" speed="7.93" length="14.34" shape="984.94,618.04 981.01,618.48 977.93,617.54 975.70,615.22 974.31,611.52"/>
    </edge>
    <edge id=":10690737494_5" function="internal">
        <lane id=":10690737494_5_0" index="0" disallow="tram rail_urban rail rail_electric rail_fast ship" speed="3.65" length="4.67" shape="984.94,618.04 983.57,617.56 982.98,616.89 983.17,616.02 984.13,614.94"/>
    </edge>
    <edge id=":10690737494_6" function="internal">
        <lane id=":10690737494_6_0" index="0" disallow="tram rail_urban rail rail_electric rail_fast ship" speed="6.43" length="9.03" shape="977.44,610.83 978.31,613.16 979.72,614.62 981.66,615.22 984.13,614.94"/>
    </edge>
    <edge id=":10690737494_7" function="internal">
        <lane id=":10690737494_7_0" index="0" disallow="tram rail_urban rail rail_electric rail_fast ship" speed="13.89" length="14.39" shape="977.44,610.83 980.48,624.90"/>
    </edge>
    <edge id=":10690737494_8" function="internal">
        <lane id=":10690737494_8_0" index="0" disallow="tram rail_urban rail rail_electric rail_fast ship" speed="3.65" length="1.44" shape="977.44,610.83 976.91,612.18"/>
    </edge>
    <edge id=":10690737494_11" function="internal">
        <lane id=":10690737494_11_0" index="0" disallow="tram rail_urban rail rail_electric rail_fast ship" speed="3.65" length="3.23" shape="976.91,612.18 976.22,612.74 975.35,612.52 974.31,611.52"/>
    </edge>
    <edge id=":10690737495_0" function="internal">
        <lane id=":10690737495_0_0" index="0" disallow="tram rail_urban rail rail_electric rail_fast ship" speed="3.65" length="4.67" shape="988.00,660.16 987.47,661.50 986.77,662.06 985.90,661.83 984.87,660.82"/>
    </edge>
    <edge id=":10910536102_0" function="internal">
        <lane id=":10910536102_0_0" index="0" allow="pedestrian bicycle" speed="9.72" length="3.08" width="2.00" shape="740.99,638.52 740.09,638.64 739.46,638.59 738.83,638.53 737.93,638.65"/>
    </edge>
    <edge id=":10910536102_1" function="internal">
        <lane id=":10910536102_1_0" index="0" disallow="tram rail_urban rail rail_electric rail_fast ship" speed="3.65" length="1.33" shape="740.99,638.52 739.74,638.07"/>
    </edge>
    <edge id=":10910536102_3" function="internal">
        <lane id=":10910536102_3_0" index="0" disallow="tram rail_urban rail rail_electric rail_fast ship" speed="3.65" length="3.34" shape="739.74,638.07 739.63,638.03 739.06,637.35 739.26,636.47 740.24,635.41"/>
    </edge>
    <edge id=":10910536102_2" function="internal">
        <lane id=":10910536102_2_0" index="0" allow="pedestrian bicycle" speed="9.72" length="3.08" width="2.00" shape="737.46,636.70 738.31,636.40 738.85,636.06 739.38,635.72 740.24,635.41"/>
    </edge>
    <edge id=":10910536103_0" function="internal">
        <lane id=":10910536103_0_0" index="0" allow="pedestrian bicycle" speed="9.72" length="3.08" width="2.00" shape="722.80,642.31 721.95,642.61 721.41,642.95 720.88,643.30 720.02,643.60"/>
    </edge>
    <edge id=":10910536103_1" function="internal">
        <lane id=":10910536103_1_0" index="0" allow="pedestrian bicycle" speed="9.72" length="3.08" width="2.00" shape="719.27,640.49 720.17,640.37 720.80,640.43 721.43,640.49 722.33,640.37"/>
    </edge>
    <edge id=":10910536103_2" function="internal">
        <lane id=":10910536103_2_0" index="0" disallow="tram rail_urban rail rail_electric rail_fast ship" speed="3.65" length="1.33" shape="719.27,640.49 720.52,640.95"/>
    </edge>
    <edge id=":10910536103_3" function="internal">
        <lane id=":10910536103_3_0" index="0" disallow="tram rail_urban rail rail_electric rail_fast ship" speed="3.65" length="3.34" shape="720.52,640.95 720.63,640.98 721.20,641.67 721.00,642.54 720.02,643.60"/>
    </edge>
    <edge id=":10945711921_0" function="internal">
        <lane id=":10945711921_0_0" index="0" allow="pedestrian delivery bicycle" speed="4.72" length="5.59" shape="242.54,938.73 241.02,938.12 239.87,938.25 239.10,939.11 238.69,940.70"/>
    </edge>
    <edge id=":10945711921_1" function="internal">
        <lane id=":10945711921_1_0" index="0" disallow="tram rail_urban rail rail_electric rail_fast ship" speed="13.89" length="9.98" shape="242.54,938.73 233.87,933.80"/>
    </edge>
    <edge id=":10945711921_2" function="internal">
        <lane id=":10945711921_2_0" index="0" disallow="tram rail_urban rail rail_electric rail_fast ship" speed="13.89" length="9.98" shape="235.46,931.02 244.13,935.95"/>
    </edge>
    <edge id=":10945711921_3" function="internal">
        <lane id=":10945711921_3_0" index="0" allow="pedestrian delivery bicycle" speed="8.39" length="2.69" shape="235.46,931.02 237.17,932.48 237.38,932.86"/>
    </edge>
    <edge id=":10945711921_7" function="internal">
        <lane id=":10945711921_7_0" index="0" allow="pedestrian delivery bicycle" speed="8.39" length="8.11" shape="237.38,932.86 238.29,934.59 238.79,937.32 238.69,940.70"/>
    </edge>
    <edge id=":10945711921_4" function="internal">
        <lane id=":10945711921_4_0" index="0" allow="pedestrian delivery bicycle" speed="6.91" length="7.09" shape="235.51,940.35 235.63,937.96 235.39,936.07 234.81,934.68 233.87,933.80"/>
    </edge>
    <edge id=":10945711921_5" function="internal">
        <lane id=":10945711921_5_0" index="0" allow="pedestrian delivery bicycle" speed="6.67" length="12.52" shape="235.51,940.35 236.41,936.79 238.14,934.87 240.72,934.59 244.13,935.95"/>
    </edge>
    <edge id=":10945711921_6" function="internal">
        <lane id=":10945711921_6_0" index="0" allow="pedestrian delivery bicycle" speed="3.65" length="4.67" shape="235.51,940.35 236.44,939.25 237.28,938.93 238.03,939.42 238.69,940.70"/>
    </edge>
    <edge id=":10945711926_0" function="internal">
        <lane id=":10945711926_0_0" index="0" allow="pedestrian delivery bicycle" speed="3.65" length="4.67" shape="242.09,1041.60 241.30,1042.80 240.50,1043.21 239.70,1042.81 238.89,1041.62"/>
    </edge>
    <edge id=":10959292346_0" function="internal">
        <lane id=":10959292346_0_0" index="0" allow="pedestrian delivery bicycle" speed="3.65" length="4.67" shape="452.52,1093.63 453.87,1094.13 454.45,1094.82 454.24,1095.69 453.26,1096.74"/>
    </edge>
    <edge id=":11068660453_0" function="internal">
        <lane id=":11068660453_0_0" index="0" allow="pedestrian delivery bicycle" speed="3.65" length="4.67" shape="329.21,1116.25 328.66,1114.92 328.78,1114.03 329.56,1113.59 331.00,1113.60"/>
    </edge>
    <edge id=":11068708581_0" function="internal">
        <lane id=":11068708581_0_0" index="0" disallow="tram rail_urban rail rail_electric rail_fast ship" speed="3.90" length="2.65" shape="964.23,738.50 963.98,737.82 963.57,737.39 963.00,737.21 962.28,737.29"/>
    </edge>
    <edge id=":11068708581_1" function="internal">
        <lane id=":11068708581_1_0" index="0" disallow="tram rail_urban rail rail_electric rail_fast ship" speed="6.07" length="7.95" shape="961.49,734.18 963.67,733.95 965.37,734.48 966.60,735.78 967.36,737.83"/>
    </edge>
    <edge id=":11124305261_0" function="internal">
        <lane id=":11124305261_0_0" index="0" disallow="tram rail_urban rail rail_electric rail_fast ship" speed="3.65" length="4.67" shape="958.30,1101.41 959.63,1101.96 960.18,1102.67 959.95,1103.53 958.93,1104.55"/>
    </edge>
    <edge id=":11124305262_0" function="internal">
        <lane id=":11124305262_0_0" index="0" disallow="tram rail_urban rail rail_electric rail_fast ship" speed="3.65" length="4.67" shape="971.21,1150.68 972.55,1151.21 973.12,1151.90 972.90,1152.77 971.90,1153.81"/>
    </edge>
    <edge id=":11124305263_0" function="internal">
        <lane id=":11124305263_0_0" index="0" disallow="tram rail_urban rail rail_electric rail_fast ship" speed="3.65" length="4.67" shape="981.54,1205.05 982.87,1205.60 983.42,1206.31 983.19,1207.17 982.17,1208.19"/>
    </edge>
    <edge id=":11124476780_0" function="internal">
        <lane id=":11124476780_0_0" index="0" disallow="tram rail_urban rail rail_electric rail_fast ship" speed="5.91" length="7.44" shape="849.09,1066.32 849.72,1067.77 850.96,1068.63 852.81,1068.90 855.27,1068.58"/>
    </edge>
    <edge id=":11124476780_1" function="internal">
        <lane id=":11124476780_1_0" index="0" disallow="tram rail_urban rail rail_electric rail_fast ship" speed="3.65" length="1.44" shape="849.09,1066.32 848.52,1067.65"/>
    </edge>
    <edge id=":11124476780_4" function="internal">
        <lane id=":11124476780_4_0" index="0" disallow="tram rail_urban rail rail_electric rail_fast ship" speed="3.65" length="3.23" shape="848.52,1067.65 847.81,1068.19 846.95,1067.95 845.94,1066.92"/>
    </edge>
    <edge id=":11124476780_2" function="internal">
        <lane id=":11124476780_2_0" index="0" disallow="tram rail_urban rail rail_electric rail_fast ship" speed="6.08" length="7.56" shape="841.21,1071.73 843.54,1070.98 845.10,1069.92 845.90,1068.57 845.94,1066.92"/>
    </edge>
    <edge id=":11124476780_3" function="internal">
        <lane id=":11124476780_3_0" index="0" disallow="tram rail_urban rail rail_electric rail_fast ship" speed="13.89" length="14.40" shape="841.21,1071.73 855.27,1068.58"/>
    </edge>
    <edge id=":11124476781_0" function="internal">
        <lane id=":11124476781_0_0" index="0" disallow="tram rail_urban rail rail_electric rail_fast ship" speed="5.95" length="7.43" shape="845.91,1066.72 845.27,1065.27 844.04,1064.40 842.19,1064.09 839.74,1064.35"/>
    </edge>
    <edge id=":11124476781_1" function="internal">
        <lane id=":11124476781_1_0" index="0" disallow="tram rail_urban rail rail_electric rail_fast ship" speed="3.65" length="1.44" shape="845.91,1066.72 846.47,1065.39"/>
    </edge>
    <edge id=":11124476781_4" function="internal">
        <lane id=":11124476781_4_0" index="0" disallow="tram rail_urban rail rail_electric rail_fast ship" speed="3.65" length="3.23" shape="846.47,1065.39 847.18,1064.85 848.04,1065.09 849.05,1066.12"/>
    </edge>
    <edge id=":11124476781_2" function="internal">
        <lane id=":11124476781_2_0" index="0" disallow="tram rail_urban rail rail_electric rail_fast ship" speed="5.99" length="7.45" shape="853.87,1061.55 851.51,1062.24 849.92,1063.24 849.10,1064.53 849.05,1066.12"/>
    </edge>
    <edge id=":11124476781_3" function="internal">
        <lane id=":11124476781_3_0" index="0" disallow="tram rail_urban rail rail_electric rail_fast ship" speed="13.89" length="14.40" shape="853.87,1061.55 839.74,1064.35"/>
    </edge>
    <edge id=":11138152858_0" function="internal">
        <lane id=":11138152858_0_0" index="0" allow="pedestrian delivery bicycle" speed="3.65" length="4.67" shape="225.01,1040.48 226.33,1039.89 227.22,1039.98 227.68,1040.74 227.72,1042.18"/>
    </edge>
    <edge id=":1663121333_0" function="internal">
        <lane id=":1663121333_0_0" index="0" disallow="pedestrian tram rail_urban rail rail_electric rail_fast ship" speed="27.78" length="9.01" shape="891.22,346.68 888.97,347.92 887.45,348.80 886.05,349.84 884.16,351.55"/>
        <lane id=":1663121333_0_1" index="1" disallow="pedestrian tram rail_urban rail rail_electric rail_fast ship" speed="27.78" length="9.01" shape="889.65,343.89 887.20,345.24 885.55,346.22 884.02,347.36 881.96,349.23"/>
    </edge>
    <edge id=":1663121333_2" function="internal">
        <lane id=":1663121333_2_0" index="0" disallow="pedestrian tram rail_urban rail rail_electric rail_fast ship" speed="8.57" length="1.62" shape="885.64,342.20 885.90,343.79"/>
        <lane id=":1663121333_2_1" index="1" disallow="pedestrian tram rail_urban rail rail_electric rail_fast ship" speed="7.04" length="2.67" shape="882.54,343.03 882.93,345.14 882.93,345.66"/>
    </edge>
    <edge id=":1663121333_4" function="internal">
        <lane id=":1663121333_4_0" index="0" disallow="pedestrian tram rail_urban rail rail_electric rail_fast ship" speed="8.57" length="8.29" shape="885.90,343.79 886.13,345.21 886.05,347.77 885.39,349.89 884.16,351.55"/>
    </edge>
    <edge id=":1663121333_5" function="internal">
        <lane id=":1663121333_5_0" index="0" disallow="pedestrian tram rail_urban rail rail_electric rail_fast ship" speed="7.04" length="3.81" shape="882.93,345.66 882.96,346.87 882.63,348.24 881.96,349.23"/>
    </edge>
    <edge id=":1663121347_0" function="internal">
        <lane id=":1663121347_0_0" index="0" disallow="pedestrian tram rail_urban rail rail_electric rail_fast ship" speed="14.00" length="10.51" shape="877.71,362.16 877.16,365.03 876.87,367.06 877.07,369.04 877.95,371.77"/>
        <lane id=":1663121347_0_1" index="1" disallow="pedestrian tram rail_urban rail rail_electric rail_fast ship" speed="14.92" length="10.51" shape="874.56,361.63 873.92,364.90 873.60,367.21 873.82,369.46 874.83,372.57"/>
    </edge>
    <edge id=":1663121347_2" function="internal">
        <lane id=":1663121347_2_0" index="0" disallow="pedestrian tram rail_urban rail rail_electric rail_fast ship" speed="8.35" length="9.92" shape="874.56,361.63 873.81,364.01 872.50,365.94 870.61,367.45 868.15,368.51"/>
    </edge>
    <edge id=":1663121372_0" function="internal">
        <lane id=":1663121372_0_0" index="0" disallow="pedestrian tram rail_urban rail rail_electric rail_fast ship" speed="13.31" length="9.41" shape="969.01,667.55 966.48,668.27 964.89,669.20 963.52,670.53 961.61,672.46"/>
        <lane id=":1663121372_0_1" index="1" disallow="pedestrian tram rail_urban rail rail_electric rail_fast ship" speed="27.78" length="9.41" shape="967.41,664.69 964.88,666.08 963.15,667.06 961.55,668.22 959.41,670.14"/>
    </edge>
    <edge id=":1663121372_2" function="internal">
        <lane id=":1663121372_2_0" index="0" disallow="pedestrian tram rail_urban rail rail_electric rail_fast ship" speed="8.78" length="1.77" shape="963.46,662.78 963.72,664.53"/>
        <lane id=":1663121372_2_1" index="1" disallow="pedestrian tram rail_urban rail rail_electric rail_fast ship" speed="7.45" length="3.20" shape="960.27,663.22 960.66,665.52 960.65,666.39"/>
    </edge>
    <edge id=":1663121372_4" function="internal">
        <lane id=":1663121372_4_0" index="0" disallow="pedestrian tram rail_urban rail rail_electric rail_fast ship" speed="8.78" length="8.55" shape="963.72,664.53 963.91,665.82 963.75,668.45 962.99,670.66 961.61,672.46"/>
    </edge>
    <edge id=":1663121372_5" function="internal">
        <lane id=":1663121372_5_0" index="0" disallow="pedestrian tram rail_urban rail rail_electric rail_fast ship" speed="7.45" length="4.06" shape="960.65,666.39 960.64,667.44 960.23,668.98 959.41,670.14"/>
    </edge>
    <edge id=":1663121389_0" function="internal">
        <lane id=":1663121389_0_0" index="0" disallow="pedestrian tram rail_urban rail rail_electric rail_fast ship" speed="25.20" length="10.53" shape="955.29,693.06 956.35,695.82 957.18,697.68 958.29,699.38 960.18,701.64"/>
        <lane id=":1663121389_0_1" index="1" disallow="pedestrian tram rail_urban rail rail_electric rail_fast ship" speed="26.58" length="10.53" shape="952.30,694.20 953.48,697.28 954.42,699.34 955.67,701.23 957.77,703.75"/>
    </edge>
    <edge id=":1663121389_2" function="internal">
        <lane id=":1663121389_2_0" index="0" disallow="pedestrian tram rail_urban rail rail_electric rail_fast ship" speed="8.39" length="9.95" shape="948.74,701.01 951.36,700.68 953.74,701.03 955.87,702.05 957.77,703.75"/>
    </edge>
    <edge id=":1663121408_0" function="internal">
        <lane id=":1663121408_0_0" index="0" disallow="pedestrian tram rail_urban rail rail_electric rail_fast ship" speed="27.78" length="8.92" shape="1039.61,1003.47 1037.34,1004.51 1035.78,1005.27 1034.37,1006.22 1032.51,1007.87"/>
        <lane id=":1663121408_0_1" index="1" disallow="pedestrian tram rail_urban rail rail_electric rail_fast ship" speed="27.78" length="8.92" shape="1038.23,1000.58 1035.69,1001.75 1033.96,1002.61 1032.39,1003.70 1030.31,1005.55"/>
    </edge>
    <edge id=":1663121408_2" function="internal">
        <lane id=":1663121408_2_0" index="0" disallow="pedestrian tram rail_urban rail rail_electric rail_fast ship" speed="8.74" length="1.66" shape="1034.36,998.57 1034.58,1000.21"/>