<?xml version="1.0" encoding="UTF-8"?>

<!-- generated on 2023-09-21 22:09:58 by Eclipse SUMO polyconvert Version v1_18_0+1729-39cac3ca09b
<configuration xmlns:xsi="http://www.w3.org/2001/XMLSchema-instance" xsi:noNamespaceSchemaLocation="http://sumo.dlr.de/xsd/polyconvertConfiguration.xsd">

    <input>
        <net-file value="map.net.xml"/>
        <osm-files value="map.osm"/>
        <type-file value="../../sumo/data/typemap/osmPolyconvert.typ.xml"/>
    </input>

    <output>
        <output-file value="map.poly.xml"/>
    </output>

</configuration>
-->

<additional xmlns:xsi="http://www.w3.org/2001/XMLSchema-instance" xsi:noNamespaceSchemaLocation="http://sumo.dlr.de/xsd/additional_file.xsd">
    <location netOffset="-644353.40,-2496660.68" convBoundary="-37.96,-1329.78,1909.52,1581.42" origBoundary="88.403782,22.558478,88.422721,22.584788" projParameter="+proj=utm +zone=45 +ellps=WGS84 +datum=WGS84 +units=m +no_defs"/>

    <poly id="1027491655" type="leisure" color="207,245,201" fill="1" layer="-2.00" shape="1508.458081,719.914284 1505.554368,712.755792 1505.953965,710.744343 1528.469544,702.532059 1530.301399,703.457450 1532.859619,710.180822 1532.059966,712.088811 1510.015794,720.471664 1508.458081,719.914284"/>
    <poly id="153691932" type="landuse" color="194,194,130" fill="1" layer="-3.00" shape="227.380142,1235.590230 223.599205,1233.085363 220.898311,1229.450187 219.612683,1225.119697 219.902028,1220.604746 221.344017,1217.075063 224.286400,1213.637033 228.245678,1211.404447 232.725618,1210.660519 237.764525,1211.704573 241.566342,1214.176422 244.298289,1217.789749 245.614755,1222.120532 245.506663,1225.950682 243.944786,1230.198961 241.012578,1233.648156 237.073658,1235.903076 232.593412,1236.680218 227.380142,1235.590230"/>
    <poly id="153750548" type="tourism" color="207,245,201" fill="1" layer="-2.00" shape="1639.366674,1204.310433 1641.134621,1196.819899 1637.449511,1190.750138 1623.039907,1184.644731 1601.197027,1180.583499 1592.012435,1181.891265 1467.175520,1209.481976 1495.139519,1333.242858 1563.493217,1320.782905 1639.366674,1204.310433"/>
    <poly id="153898297" type="tourism" color="207,245,201" fill="1" layer="-2.00" shape="1293.123977,386.149723 1340.130350,374.039518 1344.590439,374.336549 1348.095306,375.598914 1387.555182,484.586683 1386.990109,487.781350 1384.169684,490.245933 1377.900857,492.002317 1324.434897,502.168670 1318.699853,501.859536 1315.973327,499.851618 1314.629197,494.125298 1290.961314,394.068376 1290.559205,390.930961 1291.102538,387.857886 1293.123977,386.149723"/>
    <poly id="153898311" type="landuse" color="194,194,130" fill="1" layer="-3.00" shape="1323.015227,719.879374 1465.686116,687.994452 1433.245207,593.655956 1422.298295,589.931122 1300.246017,622.698771 1323.015227,719.879374"/>
    <poly id="153898311#1" type="tourism" color="207,245,201" fill="1" layer="-2.00" shape="1323.015227,719.879374 1465.686116,687.994452 1433.245207,593.655956 1422.298295,589.931122 1300.246017,622.698771 1323.015227,719.879374"/>
    <poly id="154887814" type="leisure" color="207,245,201" fill="1" layer="-2.00" shape="544.449045,997.739230 545.091938,992.817928 585.054204,930.424067 593.346718,921.234534 602.367949,914.366099 613.851297,908.107795 634.204477,902.298743 665.219144,895.593968 675.149532,893.716910 684.601620,897.836772 707.078262,994.769900 669.047940,1003.966050 661.789351,1007.119591 654.739088,1013.253677 634.945457,1046.904900 624.148124,1052.394574 546.728880,1001.315123 544.449045,997.739230"/>
    <poly id="154887814#1" type="sport" color="79,230,125" fill="1" layer="-2.00" shape="544.449045,997.739230 545.091938,992.817928 585.054204,930.424067 593.346718,921.234534 602.367949,914.366099 613.851297,908.107795 634.204477,902.298743 665.219144,895.593968 675.149532,893.716910 684.601620,897.836772 707.078262,994.769900 669.047940,1003.966050 661.789351,1007.119591 654.739088,1013.253677 634.945457,1046.904900 624.148124,1052.394574 546.728880,1001.315123 544.449045,997.739230"/>
    <poly id="157924338" type="amenity" color="237,199,199" fill="1" layer="-1.00" shape="1454.228850,826.671939 1473.163755,822.998612 1473.488324,824.551890 1489.180413,821.268519 1491.978516,820.066044 1494.782514,818.243548 1497.436706,815.954572 1499.635473,812.897242 1501.223217,809.214026 1501.873826,805.676917 1501.749602,802.519989 1501.159107,799.735102 1499.715102,796.953172 1498.184523,794.624404 1496.493082,792.991692 1494.420469,791.432866 1492.331046,790.560394 1490.096097,789.852630 1487.859041,789.366303 1485.761513,789.346360 1483.197610,789.709530 1467.287779,793.179077 1467.511108,794.565299 1447.400444,798.603934 1447.106612,797.062022 1439.883568,798.609994 1437.714773,799.597004 1436.221748,800.889403 1435.125301,802.650629 1434.333632,804.802299 1434.150809,806.727227 1438.080031,823.916331 1439.111218,825.775289 1438.999811,828.841394 1441.171529,831.873836 1444.191661,833.275569 1446.964553,829.315721 1454.532014,828.313594 1454.228850,826.671939"/>
    <poly id="157924338#1" type="building" color="255,230,230" fill="1" layer="-1.00" shape="1454.228850,826.671939 1473.163755,822.998612 1473.488324,824.551890 1489.180413,821.268519 1491.978516,820.066044 1494.782514,818.243548 1497.436706,815.954572 1499.635473,812.897242 1501.223217,809.214026 1501.873826,805.676917 1501.749602,802.519989 1501.159107,799.735102 1499.715102,796.953172 1498.184523,794.624404 1496.493082,792.991692 1494.420469,791.432866 1492.331046,790.560394 1490.096097,789.852630 1487.859041,789.366303 1485.761513,789.346360 1483.197610,789.709530 1467.287779,793.179077 1467.511108,794.565299 1447.400444,798.603934 1447.106612,797.062022 1439.883568,798.609994 1437.714773,799.597004 1436.221748,800.889403 1435.125301,802.650629 1434.333632,804.802299 1434.150809,806.727227 1438.080031,823.916331 1439.111218,825.775289 1438.999811,828.841394 1441.171529,831.873836 1444.191661,833.275569 1446.964553,829.315721 1454.532014,828.313594 1454.228850,826.671939"/>
    <poly id="157924352" type="amenity" color="237,199,199" fill="1" layer="-1.00" shape="1320.808828,540.745036 1338.706170,536.995235 1334.281770,517.786225 1327.251764,519.568619 1328.087456,524.692182 1326.660231,524.468245 1324.611199,521.503426 1321.739275,523.978603 1323.354480,526.064552 1319.605418,528.863584 1320.552133,533.124523 1319.017041,533.431056 1320.808828,540.745036"/>
    <poly id="157924357" type="amenity" color="237,199,199" fill="1" layer="-1.00" shape="1480.569968,815.163050 1489.658470,813.167778 1491.296921,811.721747 1492.702570,809.885956 1493.814464,807.582314 1493.989854,805.358349 1493.553588,802.574929 1492.482752,800.560571 1490.719336,798.927176 1488.795795,797.912335 1486.546985,797.580915 1483.364690,798.093225 1477.469493,799.498785 1480.569968,815.163050"/>
    <poly id="157924357#1" type="building" color="255,230,230" fill="1" layer="-1.00" shape="1480.569968,815.163050 1489.658470,813.167778 1491.296921,811.721747 1492.702570,809.885956 1493.814464,807.582314 1493.989854,805.358349 1493.553588,802.574929 1492.482752,800.560571 1490.719336,798.927176 1488.795795,797.912335 1486.546985,797.580915 1483.364690,798.093225 1477.469493,799.498785 1480.569968,815.163050"/>
    <poly id="157924363" type="amenity" color="237,199,199" fill="1" layer="-1.00" shape="1445.340992,820.541708 1449.513508,819.706619 1446.672379,807.045555 1442.725010,807.993513 1445.340992,820.541708"/>
    <poly id="157924363#1" type="building" color="255,230,230" fill="1" layer="-1.00" shape="1445.340992,820.541708 1449.513508,819.706619 1446.672379,807.045555 1442.725010,807.993513 1445.340992,820.541708"/>
    <poly id="157924365" type="amenity" color="237,199,199" fill="1" layer="-1.00" shape="1468.719403,816.733449 1471.903799,815.999700 1468.636139,801.695802 1465.451740,802.429551 1468.719403,816.733449"/>
    <poly id="157924365#1" type="building" color="255,230,230" fill="1" layer="-1.00" shape="1468.719403,816.733449 1471.903799,815.999700 1468.636139,801.695802 1465.451740,802.429551 1468.719403,816.733449"/>
    <poly id="157933724" type="amenity" color="237,199,199" fill="1" layer="-1.00" shape="1463.992388,916.996966 1535.528903,900.913011 1517.878883,852.744561 1465.499054,867.759493 1457.032524,904.927889 1463.992388,916.996966"/>
    <poly id="157933726" type="residential" color="235,235,227" fill="1" layer="-3.00" shape="1076.763932,1027.336883 1093.102435,1020.914586 1121.555469,1015.426593 1225.292286,991.142798 1327.656889,969.548411 1438.263681,945.231614 1493.247172,933.208874 1543.108642,922.399903 1546.627678,925.400887 1550.439174,926.843390 1568.689618,975.648756 1578.527507,999.714974 1579.246795,1013.817496 1585.255441,1023.175824 1594.438925,1041.444754 1600.745178,1048.702089 1602.950450,1055.765379 1616.752685,1065.197892 1625.604337,1074.029658 1642.851452,1088.843152 1686.310464,1120.803349 1686.207157,1138.131312 1639.022934,1212.334947 1619.700114,1241.682190 1604.597929,1265.134599 1589.129608,1289.247905 1575.346708,1310.221512 1543.821287,1358.752623 1508.783008,1410.151449 1499.992843,1411.086537 1487.657248,1413.969943 1431.636071,1426.082388 1315.172847,1450.276950 1195.682422,1476.038120 1162.016530,1450.151535 1070.038399,1038.246236 1076.763932,1027.336883"/>
    <poly id="157933732" type="residential" color="235,235,227" fill="1" layer="-3.00" shape="997.043118,711.427871 1003.510937,697.338157 1225.233391,639.813882 1423.977784,588.496547 1433.162062,591.584554 1436.748154,601.606293 1458.759649,663.745630 1487.030660,744.546824 1495.961751,771.007140 1512.285963,816.959455 1538.861800,898.619424 1536.515747,904.188873 1412.754927,937.348936 1382.169128,944.333112 1315.125465,960.537938 1271.131511,970.716828 1226.528592,980.059601 1178.134540,991.237828 1142.110293,999.211707 1110.919126,1001.750481 1075.455646,1005.898650 1065.331110,998.970747 997.043118,711.427871"/>
    <poly id="157970103" type="landuse" color="194,194,130" fill="1" layer="-3.00" shape="1439.827606,572.968104 1438.953548,571.885736 1438.026501,570.968957 1436.767584,570.347989 1435.517371,569.893196 1434.273020,569.903516 1432.832257,570.022697 1431.697433,570.410532 1430.384761,571.117789 1429.545383,571.796325 1428.826866,572.741757 1428.075609,573.886188 1427.786733,575.068231 1427.557656,576.450153 1427.678382,577.813253 1428.126137,579.389845 1428.681975,580.413823 1429.597267,581.485510 1430.670158,582.204364 1431.663211,582.667786 1432.760454,582.988252 1434.147280,583.134305 1435.618468,583.059705 1436.640293,582.659722 1437.756236,582.094543 1438.864632,581.241400 1439.634981,580.252170 1440.220462,579.239037 1440.633251,578.002808 1440.943113,576.776673 1440.771819,575.324510 1440.454155,574.125629 1439.827606,572.968104"/>
    <poly id="158004738" type="tourism" color="207,245,201" fill="1" layer="-2.00" shape="1349.840598,1142.339682 1369.264641,1138.006532 1360.098311,1097.348721 1340.663939,1101.681788 1349.840598,1142.339682"/>
    <poly id="158004739" type="tourism" color="207,245,201" fill="1" layer="-2.00" shape="1329.822014,1041.475681 1345.471561,1038.313576 1337.256885,998.129889 1321.607300,1001.292005 1329.822014,1041.475681"/>
    <poly id="158004743" type="tourism" color="207,245,201" fill="1" layer="-2.00" shape="1322.255507,1254.566141 1313.615327,1212.639983 1293.782862,1216.681425 1302.423093,1258.607569 1322.255507,1254.566141"/>
    <poly id="158028042" type="residential" color="235,235,227" fill="1" layer="-3.00" shape="993.413518,665.817951 926.577293,377.735798 932.809657,370.054956 1034.675122,345.076469 1163.623021,315.095919 1223.057573,301.276226 1320.541979,278.616510 1377.329670,437.385909 1407.645606,516.268568 1422.560888,559.051607 1423.188674,561.161403 1419.537516,570.970417 1210.096126,625.796039 1003.899027,677.001152 993.413518,665.817951"/>
    <poly id="158028080" type="landuse" color="194,194,130" fill="1" layer="-3.00" shape="1415.805400,563.327946 1400.760176,509.326945 1396.236908,507.025121 1389.771330,505.679251 1382.292682,507.058737 1322.013405,520.017149 1318.472466,524.722677 1316.527032,530.340250 1317.091731,534.763654 1331.359811,586.166144 1415.805400,563.327946"/>
    <poly id="158028312" type="building" color="255,230,230" fill="1" layer="-1.00" shape="1284.059776,358.481376 1279.502411,339.182549 1307.462723,332.660374 1309.182884,339.940450 1316.706203,338.195946 1314.818078,330.194543 1329.390795,326.800697 1333.839099,345.666668 1319.771387,348.943503 1318.891586,345.214694 1309.636850,347.363524 1308.826500,343.901123 1293.047938,347.582504 1294.501099,353.741693 1290.955794,354.571713 1291.469871,356.746858 1284.059776,358.481376"/>
    <poly id="158028314" type="tourism" color="207,245,201" fill="1" layer="-2.00" shape="1167.099053,599.090242 1189.802677,592.728401 1180.717925,560.719389 1158.014154,567.092317 1167.099053,599.090242"/>
    <poly id="158028315" type="tourism" color="207,245,201" fill="1" layer="-2.00" shape="1127.961754,433.192104 1149.143294,427.956252 1128.683017,346.288742 1107.501269,351.535700 1127.961754,433.192104"/>
    <poly id="158028316" type="tourism" color="207,245,201" fill="1" layer="-2.00" shape="1147.958931,520.303042 1170.488693,514.936067 1160.732953,474.516473 1138.213420,479.883562 1147.958931,520.303042"/>
    <poly id="158076314" type="building" color="255,230,230" fill="1" layer="-1.00" shape="533.064823,371.877365 537.031993,388.435369 531.066658,389.641324 528.780202,388.933221 525.931951,386.736064 524.009484,383.418231 523.815582,379.994922 524.189958,377.374217 525.352826,375.104212 527.434614,373.529397 529.159277,372.748446 533.064823,371.877365"/>
    <poly id="158076323" type="building" color="255,230,230" fill="1" layer="-1.00" shape="545.323273,392.466647 560.272150,388.411274 560.747396,390.353494 569.681967,388.334070 561.719487,356.026087 537.665902,361.601019 537.983537,362.810948 529.531595,364.901386 525.704646,366.160756 522.196902,368.463981 519.498425,371.095957 517.360871,374.220432 516.280090,377.598486 516.160508,381.550327 516.933284,385.743122 519.081858,389.074162 522.055413,392.158320 525.848060,394.530485 530.370291,395.868704 534.340801,395.740110 539.099558,394.899234 545.818109,393.423577 545.323273,392.466647"/>
    <poly id="158076326" type="building" color="255,230,230" fill="1" layer="-1.00" shape="539.977387,370.547483 544.224131,369.480317 548.279299,385.430154 544.042842,386.497416 539.977387,370.547483"/>
    <poly id="158076327" type="building" color="255,230,230" fill="1" layer="-1.00" shape="555.538199,367.029375 558.476484,366.226673 562.771477,381.824452 559.833195,382.627154 555.538199,367.029375"/>
    <poly id="158184967" type="building" color="255,230,230" fill="1" layer="-1.00" shape="977.951193,335.492574 1014.821479,327.371218 1008.163431,297.489171 965.151505,306.958614 971.809630,336.840638 977.951193,335.492574"/>
    <poly id="158184980" type="landuse" color="194,194,130" fill="1" layer="-3.00" shape="161.358375,713.663504 161.267550,712.389284 161.674434,710.676844 162.634461,709.191069 164.063496,708.130478 165.754753,707.614921 167.532915,707.698110 169.171673,708.388987 170.466222,709.597039 171.244062,711.077041 171.494913,712.828896 171.128947,714.563867 170.189379,716.060907 168.243532,717.404520 166.502431,717.753516 164.746608,717.482300 163.181285,716.637098 162.011267,715.308420 161.358375,713.663504"/>
    <poly id="158184981" type="landuse" color="194,194,130" fill="1" layer="-3.00" shape="517.408053,458.517691 517.317255,457.243468 517.724184,455.531035 518.684261,454.045280 520.113345,452.984720 521.804644,452.469200 523.582836,452.552429 525.221609,453.243343 526.516155,454.451425 527.293977,455.931446 527.544793,457.683309 527.178782,459.418273 526.239165,460.915293 524.293253,462.258864 522.552113,462.607822 520.796264,462.336567 519.230931,461.491328 518.060921,460.162623 517.408053,458.517691"/>
    <poly id="158199200" type="landuse" color="194,194,130" fill="1" layer="-3.00" shape="601.123622,763.133723 600.131054,761.529867 597.109585,760.261165 594.064680,761.472540 592.781820,764.472207 592.837025,765.159239 594.007765,767.495581 597.029128,768.775353 598.316259,768.588207 600.074136,767.552907 601.356997,764.553241 601.123622,763.133723"/>
    <poly id="158199992" type="building" color="255,230,230" fill="1" layer="-1.00" shape="714.654761,1051.500888 706.838114,1012.550485 692.332720,1015.436163 695.239494,1029.913607 688.131117,1031.319060 690.085475,1041.037281 697.286698,1039.599490 700.252533,1054.354314 714.654761,1051.500888"/>
    <poly id="158199999" type="farm" color="242,242,204" fill="1" layer="-3.00" shape="693.423589,1096.886646 695.848515,1097.075671 699.426970,1095.980093 712.619309,1089.494431 721.594561,1083.134980 725.432839,1078.487509 726.283223,1074.465067 725.945005,1069.999544 713.661409,1015.194975 711.705083,1012.208971 708.838195,1009.823357 703.323641,1007.966340 698.561270,1008.120609 671.826243,1014.633243 665.786589,1018.285510 661.691375,1022.919493 654.130389,1034.131147 641.939551,1054.323333 641.261233,1057.550166 642.191191,1061.423351 644.128635,1064.232003 693.423589,1096.886646"/>
    <poly id="158308031" type="school" color="237,199,199" fill="1" layer="-2.00" shape="1297.560865,675.900153 1285.604074,629.081621 1245.827829,637.905514 1251.382061,657.258094 1269.107500,653.185478 1270.641887,662.700493 1251.295673,666.359101 1258.042115,683.608100 1297.560865,675.900153"/>
    <poly id="158308031#1" type="building" color="255,230,230" fill="1" layer="-1.00" shape="1297.560865,675.900153 1285.604074,629.081621 1245.827829,637.905514 1251.382061,657.258094 1269.107500,653.185478 1270.641887,662.700493 1251.295673,666.359101 1258.042115,683.608100 1297.560865,675.900153"/>
    <poly id="158308047" type="tourism" color="207,245,201" fill="1" layer="-2.00" shape="1236.519486,811.482696 1259.914235,805.946922 1253.240872,776.673566 1250.468638,768.652700 1238.870570,772.872069 1237.570270,769.028543 1227.499424,771.601499 1236.519486,811.482696"/>
    <poly id="158308048" type="tourism" color="207,245,201" fill="1" layer="-2.00" shape="1283.950945,936.402178 1266.006055,856.397003 1246.798356,860.654847 1264.743337,940.659995 1283.950945,936.402178"/>
    <poly id="158308099" type="building" color="255,230,230" fill="1" layer="-1.00" shape="1374.807892,306.647726 1395.113134,299.510427 1391.797928,290.188867 1371.492676,297.326171 1374.807892,306.647726"/>
    <poly id="158308100" type="building" color="255,230,230" fill="1" layer="-1.00" shape="1352.666439,303.569579 1362.839092,300.056466 1367.304285,312.810432 1377.569792,309.264992 1379.321767,314.275460 1406.012166,305.050709 1396.851857,278.854055 1349.723033,295.159528 1352.666439,303.569579"/>
    <poly id="158496693" type="tourism" color="207,245,201" fill="1" layer="-2.00" shape="781.001924,772.984200 803.662624,767.850484 814.110203,813.469491 791.439283,818.603090 781.001924,772.984200"/>
    <poly id="158496694" type="tourism" color="207,245,201" fill="1" layer="-2.00" shape="838.476506,1031.158192 860.340962,1026.459955 849.846265,978.249414 827.981746,982.947669 838.476506,1031.158192"/>
    <poly id="158496695" type="tourism" color="207,245,201" fill="1" layer="-2.00" shape="813.876834,927.217801 835.936991,922.499227 825.237311,873.113064 803.176983,877.842729 813.876834,927.217801"/>
    <poly id="158498295" type="residential" color="235,235,227" fill="1" layer="-3.00" shape="895.511504,714.441249 842.065634,725.871699 780.528273,740.447942 669.072031,763.244501 667.474521,766.894480 668.585501,776.637937 672.355800,794.412142 676.407492,812.875520 684.280327,849.168956 700.103514,922.243786 733.122775,1072.126978 745.490759,1082.131963 800.343605,1070.747791 853.397858,1059.280344 959.855904,1036.382516 1012.749173,1024.570824 1019.839681,1010.952077 1028.604027,1002.996316 1017.365668,946.507216 997.785648,858.780295 967.418996,711.313282 959.941114,708.286011 954.321540,702.308844 895.511504,714.441249"/>
    <poly id="158502905" type="residential" color="235,235,227" fill="1" layer="-3.00" shape="729.639135,1078.416571 728.297931,1081.061347 723.885006,1084.496450 717.105514,1089.182537 709.359539,1093.859485 701.538855,1097.738491 696.999485,1099.323255 692.265075,1100.872956 440.152664,936.584936 441.238039,925.090596 477.875419,869.574486 485.304386,859.269469 492.506673,850.102808 500.154891,841.626871 509.286958,832.821697 521.427186,822.339736 548.886691,804.473025 568.575636,794.970377 574.448670,792.634153 585.375041,788.740130 591.112789,784.398465 604.891624,782.247687 616.470826,778.913493 629.016749,775.566300 641.934295,772.067610 653.866870,768.338164 662.035322,779.897837 729.639135,1078.416571"/>
    <poly id="158502907" type="residential" color="235,235,227" fill="1" layer="-3.00" shape="435.775031,946.088320 572.688822,1033.294922 504.947239,1137.702170 467.124138,1202.319878 585.789391,1278.060245 517.099545,1387.153293 510.847401,1390.460347 317.806017,1264.922113 367.877971,1191.262504 364.224708,1188.304824 359.653090,1184.596605 381.379634,1150.885805 356.278316,1135.778234 321.453536,1114.799006 428.327556,947.468547 435.775031,946.088320"/>
    <poly id="158511211" type="residential" color="235,235,227" fill="1" layer="-3.00" shape="1124.722641,1494.520667 1119.978284,1500.377453 1113.663065,1505.986809 1102.517948,1512.380809 1076.984604,1520.188538 1047.857288,1526.400965 966.191900,1542.933553 896.821872,1557.567784 822.127678,1573.082024 806.505749,1573.399181 797.851197,1575.232842 791.947024,1575.453772 782.166094,1573.534181 530.729945,1409.361150 528.063853,1400.964955 706.180874,1122.264277 710.149850,1116.842945 715.937284,1108.327368 722.910865,1103.775991 731.350134,1099.725683 757.615019,1092.898674 807.459667,1081.566799 914.866014,1057.315697 973.718526,1043.821897 1020.533022,1032.185162 1025.079980,1039.569513 1031.031460,1044.143621 1054.955613,1158.420053 1068.167470,1219.290603 1079.183712,1272.046149 1099.740462,1372.671266 1119.486222,1464.452662 1124.254080,1477.796313 1126.105075,1486.450648 1124.722641,1494.520667"/>
    <poly id="158640618" type="residential" color="235,235,227" fill="1" layer="-3.00" shape="537.152366,461.704871 532.531062,468.681347 601.738765,751.358126 610.229482,759.288949 887.374840,699.537769 949.301221,686.261137 956.891416,668.749478 876.550654,388.489924 871.003341,384.639454 537.152366,461.704871"/>
    <poly id="158640645" type="tourism" color="207,245,201" fill="1" layer="-2.00" shape="715.446809,617.666556 734.979122,612.802107 715.235659,534.519227 695.703152,539.394778 715.446809,617.666556"/>
    <poly id="158640647" type="tourism" color="207,245,201" fill="1" layer="-2.00" shape="735.774734,701.546723 754.114129,696.682093 744.359839,660.359753 726.030688,665.224493 735.774734,701.546723"/>
    <poly id="158640651" type="tourism" color="207,245,201" fill="1" layer="-2.00" shape="683.073750,491.728960 702.638415,486.720820 692.111843,446.128226 672.557414,451.136478 683.073750,491.728960"/>
    <poly id="160068581" type="residential" color="235,235,227" fill="1" layer="-3.00" shape="127.365847,1406.485491 395.821293,1579.570838 505.655918,1411.017707 242.845682,1240.984523 231.767067,1244.711239 127.365847,1406.485491"/>
    <poly id="164599873" type="building" color="255,230,230" fill="1" layer="-1.00" shape="1373.085567,572.400372 1396.155916,566.418787 1393.223693,554.675918 1370.155957,560.380714 1373.085567,572.400372"/>
    <poly id="164599874" type="university" color="237,199,199" fill="1" layer="-2.00" shape="1403.413428,371.850282 1391.032830,376.139631 1391.296041,377.659103 1386.429660,378.996972 1378.598424,356.865592 1397.655343,350.148281 1396.717627,347.105429 1391.848606,348.720091 1387.800683,337.509196 1389.886859,336.565682 1389.080182,333.800895 1398.260254,330.854162 1406.353322,354.648958 1400.370028,356.651651 1403.468442,366.059738 1412.225663,363.241870 1421.539144,390.624783 1397.615991,398.668856 1393.617820,396.294514 1392.770547,397.803436 1389.598823,396.112387 1391.014381,393.235838 1389.488950,392.523760 1391.191280,388.686603 1392.846594,389.798534 1407.618560,384.911832 1403.413428,371.850282"/>
    <poly id="164599874#1" type="building" color="255,230,230" fill="1" layer="-1.00" shape="1403.413428,371.850282 1391.032830,376.139631 1391.296041,377.659103 1386.429660,378.996972 1378.598424,356.865592 1397.655343,350.148281 1396.717627,347.105429 1391.848606,348.720091 1387.800683,337.509196 1389.886859,336.565682 1389.080182,333.800895 1398.260254,330.854162 1406.353322,354.648958 1400.370028,356.651651 1403.468442,366.059738 1412.225663,363.241870 1421.539144,390.624783 1397.615991,398.668856 1393.617820,396.294514 1392.770547,397.803436 1389.598823,396.112387 1391.014381,393.235838 1389.488950,392.523760 1391.191280,388.686603 1392.846594,389.798534 1407.618560,384.911832 1403.413428,371.850282"/>
    <poly id="165015384" type="building" color="255,230,230" fill="1" layer="-1.00" shape="1439.554419,553.023412 1468.872619,543.170472 1464.926477,532.082315 1467.804676,531.113123 1465.113703,523.203716 1461.010555,524.305212 1458.246339,516.527985 1455.587116,517.178150 1452.758993,509.632844 1440.761348,513.671113 1442.452001,518.636718 1433.714373,521.565478 1435.095014,525.609094 1432.165300,526.588876 1434.326170,532.931974 1436.987704,532.038227 1437.717890,534.193287 1446.816651,531.135089 1448.817103,537.044827 1435.591904,541.492197 1439.554419,553.023412"/>
    <poly id="165272685" type="amenity" color="237,199,199" fill="1" layer="-1.00" shape="1525.779836,609.074229 1537.404614,603.150108 1555.338274,634.501671 1538.891760,642.483750 1525.779836,609.074229"/>
    <poly id="165272685#1" type="building" color="255,230,230" fill="1" layer="-1.00" shape="1525.779836,609.074229 1537.404614,603.150108 1555.338274,634.501671 1538.891760,642.483750 1525.779836,609.074229"/>
    <poly id="165272687" type="building" color="255,230,230" fill="1" layer="-1.00" shape="1530.950181,646.051172 1527.175962,635.274667 1523.574977,636.558085 1521.771472,631.569249 1515.167864,633.931395 1517.602930,640.631446 1493.520285,649.260691 1490.764605,641.671773 1494.623691,640.280073 1492.148645,633.457846 1497.741128,631.451478 1494.414629,622.251577 1488.987184,624.204151 1481.752646,604.237562 1483.785383,603.503937 1482.392481,599.670581 1486.695181,598.128077 1486.194338,596.728144 1489.403344,595.573864 1491.327303,600.873878 1495.846666,599.255927 1499.654395,609.755920 1512.521158,605.150180 1507.771550,592.050193 1528.005575,584.801683 1528.737009,586.823887 1532.028594,585.637182 1533.892321,590.781611 1535.491633,590.209963 1536.503594,593.009931 1532.304024,594.520184 1533.847250,598.764668 1519.649446,603.844937 1534.499333,644.811554 1547.550631,640.262963 1553.298279,656.539279 1543.713674,659.869610 1546.657523,668.213280 1575.277566,658.232110 1579.663364,670.653222 1559.905871,677.540790 1562.591115,684.962961 1567.570524,683.626229 1582.322322,724.071554 1524.349142,746.540458 1522.344960,741.029291 1517.992990,742.349858 1512.422210,726.938914 1554.155264,712.387547 1545.153797,686.845567 1540.247210,672.957904 1517.570016,680.858599 1522.366255,694.457312 1506.880126,699.857519 1501.272820,683.959032 1512.848789,679.916807 1510.425485,673.061849 1505.163726,674.894191 1498.925479,657.218059 1530.950181,646.051172"/>
    <poly id="165272688" type="building" color="255,230,230" fill="1" layer="-1.00" shape="1501.744482,630.027934 1512.030489,626.471717 1513.581999,630.926661 1524.373517,627.198094 1523.062148,623.443018 1518.625887,624.973169 1517.925091,622.973402 1521.783658,621.637068 1519.140878,614.071363 1516.035431,615.149112 1513.882995,609.005389 1501.038378,613.445247 1502.770233,618.400180 1498.220449,619.973548 1501.744482,630.027934"/>
    <poly id="165383361" type="building" color="255,230,230" fill="1" layer="-1.00" shape="1410.392192,429.583662 1419.190508,426.766191 1416.403188,418.169369 1430.028861,413.792218 1428.400304,408.782915 1426.048585,409.535663 1424.819638,405.759238 1413.514831,409.383350 1414.753747,413.193087 1405.986376,415.999783 1410.392192,429.583662"/>
    <poly id="165383363" type="building" color="255,230,230" fill="1" layer="-1.00" shape="1415.343311,433.395454 1429.057330,428.376921 1426.240088,420.765290 1431.028201,419.005925 1431.930457,421.450512 1435.593702,420.112298 1439.503716,430.679678 1429.287893,434.413781 1430.510973,437.725095 1420.336391,441.448523 1418.852389,437.459291 1417.087814,438.106892 1415.343311,433.395454"/>
    <poly id="165383365" type="landuse" color="194,194,130" fill="1" layer="-3.00" shape="1423.294396,466.711516 1446.944758,459.229608 1449.633966,459.753442 1466.017808,454.051659 1468.234969,451.227026 1464.295923,440.471124 1460.448849,438.430383 1417.032571,452.578501 1421.453171,465.686396 1423.294396,466.711516"/>
    <poly id="174252530" type="landuse" color="194,194,130" fill="1" layer="-3.00" shape="510.998929,478.410257 508.476168,476.592650 504.134648,475.721198 503.877489,475.729843 500.877744,476.509828 497.802088,478.794991 496.213899,481.459599 495.645355,485.041801 496.760473,488.916718 498.222915,490.857185 500.756270,492.641672 504.028649,493.480882 507.116853,493.133570 510.289684,491.447255 511.972855,489.614001 513.504859,485.276878 513.194508,482.206797 510.998929,478.410257"/>
    <poly id="191090960" type="residential" color="235,235,227" fill="1" layer="-3.00" shape="125.203547,1234.361532 119.256279,1229.322772 116.210148,1223.037979 99.178906,1215.746704 83.798014,1216.642672 81.189659,1200.994476 86.721388,1198.843100 91.622662,1198.125245 91.957101,1192.093753 96.476518,1188.249791 89.958290,1170.682402 75.464431,1164.732712 71.784417,1144.955370 40.939434,1140.280126 40.905718,1136.216115 53.323466,1135.513653 85.053019,1142.345364 106.495205,1149.678164 116.905204,1156.895994 132.141484,1171.356580 151.149734,1181.634011 129.263360,1221.455749 125.203547,1234.361532"/>